#include "appliance_schedules.glm";
#include "water_and_setpoint_schedule_v5.glm";
#include "commercial_schedules.glm";
#include "daily_elasticity_schedules.glm";
#set threadcount=1;
#set profiler=1;
#set relax_naming_rules=1;
#set suppress_repeat_messages=1
#set deltamode_maximumtime=1000000000
#set deltamode_iteration_limit=10
#set minimum_timestep=60
#set pauseat='2009-06-01 00:00:00'

clock {
	timezone PST+8PDT;
	starttime '2009-06-01 00:00:00';
	stoptime '2009-06-03 00:00:00';

};

module tape;

module residential{
	implicit_enduses NONE;
};

module powerflow{
	solver_method NR;
	NR_iteration_limit 50;
	enable_subsecond_models true;
	all_powerflow_delta true;
	enable_frequency_dependence true;
	deltamode_timestep 10.0 ms;
	default_maximum_voltage_error 1e-6;
};

module generators{
	enable_subsecond_models true;
	deltamode_timestep 10.0 ms;
};

module market;

module climate;

object climate{
	name "TN-Nashville";
	tmyfile "TN-Nashville.tmy2";
	interpolate QUADRATIC;

};

class auction{
	double current_price_mean_1h;
	double current_price_stdev_1h;

};

object climate{
	name "CA-San_francisco";
	tmyfile "CA-San_francisco.tmy2";
	interpolate QUADRATIC;

};

object regulator_configuration{
	name regulator_configuration_223;
	name feeder_reg_cfg;
	Control OUTPUT_VOLTAGE;
	band_center 7500.0;
	band_width 120;
	connect_type WYE_WYE;
	time_delay 30;
	raise_taps 16;
	lower_taps 16;
	regulation 0.10;
	tap_pos_A 0;
	tap_pos_B 0;
	tap_pos_C 0;

};

object line_configuration{
	name line_configuration_17;
	conductor_A underground_line_conductor_2;
	conductor_B underground_line_conductor_2;
	conductor_C underground_line_conductor_2;
	conductor_N underground_line_conductor_2;
	spacing line_spacing_9;

};

object line_configuration{
	name line_configuration_18;
	conductor_A overhead_line_conductor_3;
	conductor_B overhead_line_conductor_3;
	conductor_C overhead_line_conductor_3;
	conductor_N overhead_line_conductor_3;
	spacing line_spacing_10;

};

object line_configuration{
	name line_configuration_19;
	conductor_A overhead_line_conductor_4;
	conductor_C overhead_line_conductor_4;
	conductor_N overhead_line_conductor_4;
	spacing line_spacing_11;

};

object line_configuration{
	name line_configuration_20;
	conductor_C overhead_line_conductor_5;
	conductor_N overhead_line_conductor_5;
	spacing line_spacing_12;

};

object line_configuration{
	name line_configuration_21;
	conductor_A overhead_line_conductor_4;
	conductor_B overhead_line_conductor_4;
	conductor_C overhead_line_conductor_4;
	conductor_N overhead_line_conductor_4;
	spacing line_spacing_10;

};

object line_configuration{
	name line_configuration_22;
	conductor_A overhead_line_conductor_5;
	conductor_C overhead_line_conductor_5;
	conductor_N overhead_line_conductor_5;
	spacing line_spacing_11;

};

object line_configuration{
	name line_configuration_23;
	conductor_C overhead_line_conductor_4;
	conductor_N overhead_line_conductor_4;
	spacing line_spacing_12;

};

object line_configuration{
	name line_configuration_24;
	conductor_A overhead_line_conductor_6;
	conductor_B overhead_line_conductor_6;
	conductor_C overhead_line_conductor_6;
	conductor_N overhead_line_conductor_6;
	spacing line_spacing_10;

};

object line_configuration{
	name line_configuration_25;
	conductor_A overhead_line_conductor_6;
	conductor_N overhead_line_conductor_6;
	spacing line_spacing_13;

};

object line_configuration{
	name line_configuration_26;
	conductor_A overhead_line_conductor_7;
	conductor_B overhead_line_conductor_7;
	conductor_C overhead_line_conductor_7;
	conductor_N overhead_line_conductor_7;
	spacing line_spacing_10;

};

object line_configuration{
	name line_configuration_27;
	conductor_A overhead_line_conductor_5;
	conductor_B overhead_line_conductor_5;
	conductor_C overhead_line_conductor_5;
	conductor_N overhead_line_conductor_5;
	spacing line_spacing_10;

};

object line_configuration{
	name line_configuration_28;
	conductor_B underground_line_conductor_8;
	conductor_C underground_line_conductor_8;
	conductor_N underground_line_conductor_8;
	spacing line_spacing_14;

};

object line_configuration{
	name line_configuration_29;
	conductor_B underground_line_conductor_8;
	conductor_N underground_line_conductor_8;
	spacing line_spacing_15;

};

object line_configuration{
	name line_configuration_30;
	conductor_B overhead_line_conductor_5;
	conductor_C overhead_line_conductor_5;
	conductor_N overhead_line_conductor_5;
	spacing line_spacing_16;

};

object line_configuration{
	name line_configuration_31;
	conductor_A overhead_line_conductor_4;
	conductor_N overhead_line_conductor_4;
	spacing line_spacing_13;

};

object line_configuration{
	name line_configuration_32;
	conductor_A overhead_line_conductor_5;
	conductor_N overhead_line_conductor_5;
	spacing line_spacing_13;

};

object line_configuration{
	name line_configuration_33;
	conductor_A underground_line_conductor_8;
	conductor_B underground_line_conductor_8;
	conductor_C underground_line_conductor_8;
	conductor_N underground_line_conductor_8;
	spacing line_spacing_9;

};

object line_spacing{
	name line_spacing_9;
	distance_AB 0.0 in;
	distance_BC 0.0 in;
	distance_AC 0.0 in;
	distance_AN 0.0 in;
	distance_BN 0.0 in;
	distance_CN 0.0 in;

};

object line_spacing{
	name line_spacing_10;
	distance_AB 57.6 in;
	distance_BC 57.6 in;
	distance_AC 57.6 in;
	distance_AN 84.0 in;
	distance_BN 84.0 in;
	distance_CN 84.0 in;

};

object line_spacing{
	name line_spacing_11;
	distance_AC 57.6 in;
	distance_AN 84.0 in;
	distance_CN 84.0 in;

};

object line_spacing{
	name line_spacing_12;
	distance_CN 84.0 in;

};

object line_spacing{
	name line_spacing_13;
	distance_AN 84.0 in;

};

object line_spacing{
	name line_spacing_14;
	distance_BC 0.0 in;
	distance_BN 0.0 in;
	distance_CN 0.0 in;

};

object line_spacing{
	name line_spacing_15;
	distance_BN 0.0 in;

};

object line_spacing{
	name line_spacing_16;
	distance_BC 57.6 in;
	distance_BN 84.0 in;
	distance_CN 84.0 in;

};

object overhead_line_conductor{
	name overhead_line_conductor_3;
	//name 4/0 ACSR;
	rating.summer.continuous 334.0;
	geometric_mean_radius 0.00814 ft;
	resistance 0.56300;

};

object overhead_line_conductor{
	name overhead_line_conductor_4;
	//name 4 AAAC;
	rating.summer.continuous 120.0;
	geometric_mean_radius 0.00700 ft;
	resistance 2.40970;

};

object overhead_line_conductor{
	name overhead_line_conductor_5;
	//name 4 CU;
	rating.summer.continuous 149.0;
	geometric_mean_radius 0.00663 ft;
	resistance 1.50000;

};

object overhead_line_conductor{
	name overhead_line_conductor_6;
	//name 2 ACSR;
	rating.summer.continuous 180.0;
	geometric_mean_radius 0.00418 ft;
	resistance 1.62570;

};

object overhead_line_conductor{
	name overhead_line_conductor_7;
	//name 1/0 AAC;
	rating.summer.continuous 230.0;
	geometric_mean_radius 0.01203 ft;
	resistance 0.95300;

};

object transformer_configuration{
	name transformer_configuration_132;
	connect_type SINGLE_PHASE_CENTER_TAPPED;
	install_type POLETOP;
	primary_voltage 7200 V;
	secondary_voltage 120 V;
	power_rating 450.0;
	powerB_rating 450.0;
	resistance 0.00033;
	reactance 0.00022;
	shunt_impedance 1226.160+1358.242j;

};

object transformer_configuration{
	name transformer_configuration_134;
	connect_type WYE_WYE;
	install_type PADMOUNT;
	primary_voltage 12470.000 V;
	secondary_voltage 480 V;
	power_rating 50.0;
	powerC_rating 50.0;
	resistance 0.00200;
	reactance 0.01000;
	shunt_impedance 391.760+390.395j;

};

object transformer_configuration{
	name transformer_configuration_135;
	connect_type WYE_WYE;
	install_type PADMOUNT;
	primary_voltage 12470.000 V;
	secondary_voltage 480 V;
	power_rating 45.0;
	powerA_rating 15.0;
	powerB_rating 15.0;
	powerC_rating 15.0;
	resistance 0.00222;
	reactance 0.01111;
	shunt_impedance 381.330+362.111j;

};

object transformer_configuration{
	name transformer_configuration_136;
	connect_type WYE_WYE;
	install_type POLETOP;
	primary_voltage 12470.000 V;
	secondary_voltage 480 V;
	power_rating 25.0;
	powerA_rating 0.0;
	powerC_rating 25.0;
	resistance 0.00400;
	reactance 0.02000;
	shunt_impedance 339.610+298.041j;

};

object transformer_configuration{
	name transformer_configuration_137;
	connect_type WYE_WYE;
	install_type POLETOP;
	primary_voltage 12470.000 V;
	secondary_voltage 480 V;
	power_rating 50.0;
	powerC_rating 50.0;
	resistance 0.00200;
	reactance 0.01000;
	shunt_impedance 391.760+396.403j;

};

object transformer_configuration{
	name transformer_configuration_138;
	connect_type WYE_WYE;
	install_type POLETOP;
	primary_voltage 12470.000 V;
	secondary_voltage 480 V;
	power_rating 75.0;
	powerA_rating 0.0;
	powerB_rating 0.0;
	powerC_rating 75.0;
	resistance 0.00133;
	reactance 0.00667;
	shunt_impedance 443.910+486.502j;

};

object transformer_configuration{
	name transformer_configuration_139;
	connect_type WYE_WYE;
	install_type POLETOP;
	primary_voltage 12470.000 V;
	secondary_voltage 480 V;
	power_rating 37.5;
	powerA_rating 37.5;
	resistance 0.00267;
	reactance 0.01333;
	shunt_impedance 365.685+353.218j;

};

object transformer_configuration{
	name transformer_configuration_140;
	connect_type WYE_WYE;
	install_type POLETOP;
	primary_voltage 12470.000 V;
	secondary_voltage 480 V;
	power_rating 75.0;
	powerA_rating 25.0;
	powerB_rating 25.0;
	powerC_rating 25.0;
	resistance 0.00133;
	reactance 0.00667;
	shunt_impedance 443.910+436.216j;

};

object transformer_configuration{
	name transformer_configuration_141;
	connect_type WYE_WYE;
	install_type POLETOP;
	primary_voltage 12470.000 V;
	secondary_voltage 480 V;
	power_rating 75.0;
	powerB_rating 75.0;
	resistance 0.00133;
	reactance 0.00667;
	shunt_impedance 443.910+471.268j;

};

object transformer_configuration{
	name transformer_configuration_142;
	connect_type WYE_WYE;
	install_type POLETOP;
	primary_voltage 12470.000 V;
	secondary_voltage 480 V;
	power_rating 75.0;
	powerA_rating 0.0;
	powerB_rating 25.0;
	powerC_rating 50.0;
	resistance 0.00133;
	reactance 0.00667;
	shunt_impedance 443.910+482.260j;

};

object transformer_configuration{
	name transformer_configuration_143;
	connect_type WYE_WYE;
	install_type POLETOP;
	primary_voltage 12470.000 V;
	secondary_voltage 480 V;
	power_rating 100.0;
	powerA_rating 100.0;
	resistance 0.00100;
	reactance 0.00500;
	shunt_impedance 496.060+425.773j;

};

object transformer_configuration{
	name transformer_configuration_144;
	connect_type WYE_WYE;
	install_type POLETOP;
	primary_voltage 12470.000 V;
	secondary_voltage 480 V;
	power_rating 25.0;
	powerA_rating 25.0;
	resistance 0.00400;
	reactance 0.02000;
	shunt_impedance 339.610+346.401j;

};

object transformer_configuration{
	name transformer_configuration_145;
	connect_type WYE_WYE;
	install_type POLETOP;
	primary_voltage 12470.000 V;
	secondary_voltage 480 V;
	power_rating 50.0;
	powerB_rating 50.0;
	resistance 0.00200;
	reactance 0.01000;
	shunt_impedance 391.760+399.432j;

};

object transformer_configuration{
	name transformer_configuration_146;
	connect_type WYE_WYE;
	install_type POLETOP;
	primary_voltage 12470.000 V;
	secondary_voltage 480 V;
	power_rating 175.0;
	powerB_rating 175.0;
	resistance 0.00057;
	reactance 0.00286;
	shunt_impedance 652.510+642.648j;

};

object transformer_configuration{
	name transformer_configuration_147;
	connect_type WYE_WYE;
	install_type POLETOP;
	primary_voltage 12470.000 V;
	secondary_voltage 480 V;
	power_rating 150.0;
	powerA_rating 50.0;
	powerB_rating 50.0;
	powerC_rating 50.0;
	resistance 0.00067;
	reactance 0.00333;
	shunt_impedance 600.360+653.959j;

};

object transformer_configuration{
	name transformer_configuration_148;
	connect_type WYE_WYE;
	install_type POLETOP;
	primary_voltage 12470.000 V;
	secondary_voltage 480 V;
	power_rating 112.5;
	powerA_rating 37.5;
	powerB_rating 37.5;
	powerC_rating 37.5;
	resistance 0.00089;
	reactance 0.00444;
	shunt_impedance 522.135+503.119j;

};

object triplex_line_conductor{
	name triplex_4/0 AA;
	resistance 0.48;
	geometric_mean_radius 0.0158;

};

object triplex_line_configuration{
	name triplex_line_configuration_1;
	conductor_1 triplex_4/0 AA;
	conductor_2 triplex_4/0 AA;
	conductor_N triplex_4/0 AA;
	insulation_thickness 0.08;
	diameter 0.522;

};

object underground_line_conductor{
	name underground_line_conductor_2;
	//name 1000 AAC (Conc);
	rating.summer.continuous 488.0;
	outer_diameter 2.15;
	conductor_gmr 0.0371 ft;
	conductor_diameter 1.152;
	conductor_resistance 0.091872;
	neutral_gmr 0.0842565914341201 ft;
	neutral_resistance 5.3856;
	neutral_diameter 0.1019;
	neutral_strands 20.0;
	shield_gmr 0.00;
	shield_resistance 0.00;

};

object underground_line_conductor{
	name underground_line_conductor_8;
	//name 1/0 AAC (Conc);
	rating.summer.continuous 142.0;
	outer_diameter 1.27;
	conductor_gmr 0.01142 ft;
	conductor_diameter 0.362;
	conductor_resistance 0.88704;
	neutral_gmr 0.0489686771417213 ft;
	neutral_resistance 13.86528;
	neutral_diameter 0.0641;
	neutral_strands 16.0;
	shield_gmr 0.00;
	shield_resistance 0.00;

};

object transformer_configuration{
	name trans_config_to_feeder;
	connect_type WYE_WYE;
	install_type PADMOUNT;
	primary_voltage 230000;
	secondary_voltage 12470.000;
	power_rating 1.4 MVA;
	impedance 0.00033+0.0022j;

};

object meter{
	name network_node;
	bustype SWING;
	nominal_voltage 230000;
	phases ABCN;

};

object transformer{
	name substation_transformer;
	from network_node;
	to node_53;
	phases ABCN;
	configuration trans_config_to_feeder;

};

object fuse{
	name fuse_1;
	phases AN;
	from node_19;
	to node_20;
	mean_replacement_time 1000;
	current_limit 50000;
	status CLOSED;

};

object fuse{
	name fuse_2;
	phases BCN;
	from node_21;
	to node_23;
	mean_replacement_time 1000;
	current_limit 50000;
	status CLOSED;

};

object fuse{
	name fuse_3;
	phases AN;
	from node_27;
	to node_28;
	mean_replacement_time 1000;
	current_limit 50000;
	status CLOSED;

};

object fuse{
	name fuse_4;
	phases AN;
	from node_32;
	to node_33;
	mean_replacement_time 1000;
	current_limit 50000;
	status CLOSED;

};

object fuse{
	name fuse_5;
	phases ABCN;
	from node_32;
	to node_35;
	mean_replacement_time 1000;
	current_limit 50000;
	status CLOSED;

};

object fuse{
	name fuse_6;
	phases BN;
	from node_36;
	to node_37;
	mean_replacement_time 1000;
	current_limit 50000;
	status CLOSED;

};

object fuse{
	name fuse_7;
	phases BN;
	from node_36;
	to node_40;
	mean_replacement_time 1000;
	current_limit 50000;
	status CLOSED;

};

object node{
	name load_1;
	parent meter_1;
	phases CN;
	nominal_voltage 480.00;

};

object node{
	name load_2;
	parent meter_2;
	phases ABCN;
	nominal_voltage 480.00;

};

object node{
	name load_3;
	parent meter_3;
	phases ACN;
	nominal_voltage 480.00;

};

object node{
	name load_4;
	parent meter_4;
	phases CN;
	nominal_voltage 480.00;

};

object node{
	name load_5;
	parent meter_5;
	phases CN;
	nominal_voltage 480.00;

};

object node{
	name load_6;
	parent meter_6;
	phases ABCN;
	nominal_voltage 480.00;

};

object node{
	name load_7;
	parent meter_7;
	phases AN;
	nominal_voltage 480.00;

};

object node{
	name load_8;
	parent meter_8;
	phases ABCN;
	nominal_voltage 480.00;

};

object node{
	name load_9;
	parent meter_9;
	phases BN;
	nominal_voltage 480.00;

};

object node{
	name load_10;
	parent meter_10;
	phases ABCN;
	nominal_voltage 480.00;

};

object node{
	name load_11;
	parent meter_11;
	phases AN;
	nominal_voltage 480.00;

};

object node{
	name load_12;
	parent meter_12;
	phases AN;
	nominal_voltage 480.00;

};

object node{
	name load_13;
	parent meter_13;
	phases AN;
	nominal_voltage 480.00;

};

object node{
	name load_14;
	parent meter_14;
	phases AN;
	nominal_voltage 480.00;

};

object node{
	name load_15;
	parent meter_15;
	phases BN;
	nominal_voltage 480.00;

};

object node{
	name load_16;
	parent meter_16;
	phases BN;
	nominal_voltage 480.00;

};

object node{
	name load_17;
	parent meter_17;
	phases BN;
	nominal_voltage 480.00;

};

object node{
	name load_18;
	parent meter_18;
	phases ABCN;
	nominal_voltage 480.00;

};

object node{
	name load_19;
	parent meter_19;
	phases AN;
	nominal_voltage 480.00;

};

object node{
	name load_20;
	parent meter_20;
	phases ABCN;
	nominal_voltage 480.00;

};

object node{
	name load_21;
	parent meter_21;
	phases ABCN;
	nominal_voltage 480.00;

};

object meter{
	name meter_1;
	phases CN;
	nominal_voltage 480;

};

object meter{
	name meter_2;
	phases ABCN;
	nominal_voltage 480;

};

object meter{
	name meter_3;
	phases ACN;
	nominal_voltage 480;

};

object meter{
	name meter_4;
	phases CN;
	nominal_voltage 480;

};

object meter{
	name meter_5;
	phases CN;
	nominal_voltage 480;

};

object meter{
	name meter_6;
	phases ABCN;
	nominal_voltage 480;

};

object meter{
	name meter_7;
	phases AN;
	nominal_voltage 480;

};

object meter{
	name meter_8;
	phases ABCN;
	nominal_voltage 480;

};

object meter{
	name meter_9;
	phases BN;
	nominal_voltage 480;

};

object meter{
	name meter_10;
	phases ABCN;
	nominal_voltage 480;

};

object meter{
	name meter_11;
	phases AN;
	nominal_voltage 480;

};

object meter{
	name meter_12;
	phases AN;
	nominal_voltage 480;

};

object meter{
	name meter_13;
	phases AN;
	nominal_voltage 480;

};

object meter{
	name meter_14;
	phases AN;
	nominal_voltage 480;

};

object meter{
	name meter_15;
	phases BN;
	nominal_voltage 480;

};

object meter{
	name meter_16;
	phases BN;
	nominal_voltage 480;

};

object meter{
	name meter_17;
	phases BN;
	nominal_voltage 480;

};

object meter{
	name meter_18;
	phases ABCN;
	nominal_voltage 480;

};

object meter{
	name meter_19;
	phases AN;
	nominal_voltage 480;

};

object meter{
	name meter_20;
	phases ABCN;
	nominal_voltage 480;

};

object meter{
	name meter_21;
	phases ABCN;
	nominal_voltage 480;

};

object meter{
	name meter_22;
	phases ABCN;
	nominal_voltage 7200;
	voltage_A 7200+0.0j;
	voltage_B -3600-6235j;
	voltage_C -3600+6235j;

	object recorder{
		file total_power_network_node.csv;
		//flags DELTAMODE;
		interval 300;
		property measured_power,measured_real_power;
	
	};
	
};

object node{
	name node_1;
	phases ABCN;
	voltage_A 7200+0.0j;
	voltage_B -3600-6235j;
	voltage_C -3600+6235j;
	nominal_voltage 7200;

};

object node{
	name node_2;
	phases ABCN;
	voltage_A 7200+0.0j;
	voltage_B -3600-6235j;
	voltage_C -3600+6235j;
	nominal_voltage 7200;

};

object node{
	name node_3;
	phases ABCN;
	voltage_A 7200+0.0j;
	voltage_B -3600-6235j;
	voltage_C -3600+6235j;
	nominal_voltage 7200;

};

object node{
	name node_4;
	phases ABCN;
	voltage_A 7200+0.0j;
	voltage_B -3600-6235j;
	voltage_C -3600+6235j;
	nominal_voltage 7200;

};

object node{
	name node_5;
	phases ACN;
	voltage_A 7200+0.0j;
	voltage_C -3600+6235j;
	nominal_voltage 7200;

};

object node{
	name node_6;
	phases CN;
	voltage_C -3600+6235j;
	nominal_voltage 7200;

};

object node{
	name node_7;
	phases ABCN;
	voltage_A 7200+0.0j;
	voltage_B -3600-6235j;
	voltage_C -3600+6235j;
	nominal_voltage 7200;

};

object node{
	name node_8;
	phases ABCN;
	voltage_A 7200+0.0j;
	voltage_B -3600-6235j;
	voltage_C -3600+6235j;
	nominal_voltage 7200;

};

object node{
	name node_9;
	phases ABCN;
	voltage_A 7200+0.0j;
	voltage_B -3600-6235j;
	voltage_C -3600+6235j;
	nominal_voltage 7200;

};

object node{
	name node_10;
	phases ABCN;
	voltage_A 7200+0.0j;
	voltage_B -3600-6235j;
	voltage_C -3600+6235j;
	nominal_voltage 7200;

};

object node{
	name node_11;
	phases ACN;
	voltage_A 7200+0.0j;
	voltage_C -3600+6235j;
	nominal_voltage 7200;

};

object node{
	name node_12;
	phases CN;
	voltage_C -3600+6235j;
	nominal_voltage 7200;

};

object node{
	name node_13;
	phases ACN;
	voltage_A 7200+0.0j;
	voltage_C -3600+6235j;
	nominal_voltage 7200;

};

object node{
	name node_14;
	phases CN;
	voltage_C -3600+6235j;
	nominal_voltage 7200;

};

object node{
	name node_15;
	phases ABCN;
	voltage_A 7200+0.0j;
	voltage_B -3600-6235j;
	voltage_C -3600+6235j;
	nominal_voltage 7200;

};

object node{
	name node_16;
	phases ABCN;
	voltage_A 7200+0.0j;
	voltage_B -3600-6235j;
	voltage_C -3600+6235j;
	nominal_voltage 7200;

};

object node{
	name node_17;
	phases ABCN;
	voltage_A 7200+0.0j;
	voltage_B -3600-6235j;
	voltage_C -3600+6235j;
	nominal_voltage 7200;

};

object node{
	name node_18;
	phases ABCN;
	voltage_A 7200+0.0j;
	voltage_B -3600-6235j;
	voltage_C -3600+6235j;
	nominal_voltage 7200;

};

object node{
	name node_19;
	phases ABCN;
	voltage_A 7200+0.0j;
	voltage_B -3600-6235j;
	voltage_C -3600+6235j;
	nominal_voltage 7200;

};

object node{
	name node_20;
	phases AN;
	voltage_A 7200+0.0j;
	nominal_voltage 7200;

};

object node{
	name node_21;
	phases ABCN;
	voltage_A 7200+0.0j;
	voltage_B -3600-6235j;
	voltage_C -3600+6235j;
	nominal_voltage 7200;

};

object node{
	name node_22;
	phases ABCN;
	voltage_A 7200+0.0j;
	voltage_B -3600-6235j;
	voltage_C -3600+6235j;
	nominal_voltage 7200;

};

object node{
	name node_23;
	phases BCN;
	voltage_B -3600-6235j;
	voltage_C -3600+6235j;
	nominal_voltage 7200;

};

object node{
	name node_24;
	phases BN;
	voltage_B -3600-6235j;
	nominal_voltage 7200;

};

object node{
	name node_25;
	phases BCN;
	voltage_B -3600-6235j;
	voltage_C -3600+6235j;
	nominal_voltage 7200;

};

object node{
	name node_26;
	phases BCN;
	voltage_B -3600-6235j;
	voltage_C -3600+6235j;
	nominal_voltage 7200;

};

object node{
	name node_27;
	phases ABCN;
	voltage_A 7200+0.0j;
	voltage_B -3600-6235j;
	voltage_C -3600+6235j;
	nominal_voltage 7200;

};

object node{
	name node_28;
	phases AN;
	voltage_A 7200+0.0j;
	nominal_voltage 7200;

};

object node{
	name node_29;
	phases AN;
	voltage_A 7200+0.0j;
	nominal_voltage 7200;

};

object node{
	name node_30;
	phases AN;
	voltage_A 7200+0.0j;
	nominal_voltage 7200;

};

object node{
	name node_31;
	phases ABCN;
	voltage_A 7200+0.0j;
	voltage_B -3600-6235j;
	voltage_C -3600+6235j;
	nominal_voltage 7200;

};

object node{
	name node_32;
	phases ABCN;
	voltage_A 7200+0.0j;
	voltage_B -3600-6235j;
	voltage_C -3600+6235j;
	nominal_voltage 7200;

};

object node{
	name node_33;
	phases AN;
	voltage_A 7200+0.0j;
	nominal_voltage 7200;

};

object node{
	name node_34;
	phases ABCN;
	voltage_A 7200+0.0j;
	voltage_B -3600-6235j;
	voltage_C -3600+6235j;
	nominal_voltage 7200;

};

object node{
	name node_35;
	phases ABCN;
	voltage_A 7200+0.0j;
	voltage_B -3600-6235j;
	voltage_C -3600+6235j;
	nominal_voltage 7200;

};

object node{
	name node_36;
	phases ABCN;
	voltage_A 7200+0.0j;
	voltage_B -3600-6235j;
	voltage_C -3600+6235j;
	nominal_voltage 7200;

};

object node{
	name node_37;
	phases BN;
	voltage_B -3600-6235j;
	nominal_voltage 7200;

};

object node{
	name node_38;
	phases BN;
	voltage_B -3600-6235j;
	nominal_voltage 7200;

};

object node{
	name node_39;
	phases BN;
	voltage_B -3600-6235j;
	nominal_voltage 7200;

};

object node{
	name node_40;
	phases BN;
	voltage_B -3600-6235j;
	nominal_voltage 7200;

};

object node{
	name node_41;
	phases ABCN;
	voltage_A 7200+0.0j;
	voltage_B -3600-6235j;
	voltage_C -3600+6235j;
	nominal_voltage 7200;

};

object node{
	name node_42;
	phases ABCN;
	voltage_A 7200+0.0j;
	voltage_B -3600-6235j;
	voltage_C -3600+6235j;
	nominal_voltage 7200;

};

object node{
	name node_43;
	phases ABCN;
	voltage_A 7200+0.0j;
	voltage_B -3600-6235j;
	voltage_C -3600+6235j;
	nominal_voltage 7200;

};

object node{
	name node_44;
	phases AN;
	voltage_A 7200+0.0j;
	nominal_voltage 7200;

};

object node{
	name node_45;
	phases ABCN;
	voltage_A 7200+0.0j;
	voltage_B -3600-6235j;
	voltage_C -3600+6235j;
	nominal_voltage 7200;

};

object node{
	name node_46;
	phases ABCN;
	voltage_A 7200+0.0j;
	voltage_B -3600-6235j;
	voltage_C -3600+6235j;
	nominal_voltage 7200;

};

object node{
	name node_47;
	phases ABCN;
	voltage_A 7200+0.0j;
	voltage_B -3600-6235j;
	voltage_C -3600+6235j;
	nominal_voltage 7200;

};

object node{
	name node_48;
	phases ABCN;
	voltage_A 7200+0.0j;
	voltage_B -3600-6235j;
	voltage_C -3600+6235j;
	nominal_voltage 7200;

};

object node{
	name node_49;
	phases ABCN;
	voltage_A 7200+0.0j;
	voltage_B -3600-6235j;
	voltage_C -3600+6235j;
	nominal_voltage 7200;

};

object node{
	name node_50;
	phases ABCN;
	voltage_A 7200+0.0j;
	voltage_B -3600-6235j;
	voltage_C -3600+6235j;
	nominal_voltage 7200;

};

object node{
	name node_51;
	phases ABCN;
	voltage_A 7200+0.0j;
	voltage_B -3600-6235j;
	voltage_C -3600+6235j;
	nominal_voltage 7200;

};

object node{
	name node_52;
	parent meter_22;
	phases ABCN;
	voltage_A 7200+0.0j;
	voltage_B -3600-6235j;
	voltage_C -3600+6235j;
	nominal_voltage 7200;

};

object node{
	name node_53;
	phases ABCN;
	nominal_voltage 7200;
	voltage_A 7200+0.0j;
	voltage_B -3600-6235j;
	voltage_C -3600+6235j;

};

object overhead_line{
	groupid Distribution_Line;
	name ol_1;
	phases ABCN;
	from node_3;
	to node_4;
	length 387.401;
	configuration line_configuration_18;

};

object overhead_line{
	groupid Distribution_Line;
	name ol_2;
	phases ACN;
	from node_4;
	to node_5;
	length 68.936;
	configuration line_configuration_19;

};

object overhead_line{
	groupid Distribution_Line;
	name ol_3;
	phases CN;
	from node_4;
	to node_6;
	length 157.766;
	configuration line_configuration_20;

};

object overhead_line{
	groupid Distribution_Line;
	name ol_4;
	phases ABCN;
	from node_4;
	to node_7;
	length 139.494;
	configuration line_configuration_18;

};

object overhead_line{
	groupid Distribution_Line;
	name ol_5;
	phases ABCN;
	from node_7;
	to node_8;
	length 1260.546;
	configuration line_configuration_18;

};

object overhead_line{
	groupid Distribution_Line;
	name ol_6;
	phases ABCN;
	from node_8;
	to node_9;
	length 633.806;
	configuration line_configuration_18;

};

object overhead_line{
	groupid Distribution_Line;
	name ol_7;
	phases ABCN;
	from node_9;
	to node_10;
	length 237.576;
	configuration line_configuration_21;

};

object overhead_line{
	groupid Distribution_Line;
	name ol_8;
	phases ACN;
	from node_8;
	to node_11;
	length 749.489;
	configuration line_configuration_22;

};

object overhead_line{
	groupid Distribution_Line;
	name ol_9;
	phases CN;
	from node_11;
	to node_12;
	length 122.880;
	configuration line_configuration_23;

};

object overhead_line{
	groupid Distribution_Line;
	name ol_10;
	phases ACN;
	from node_11;
	to node_13;
	length 245.725;
	configuration line_configuration_19;

};

object overhead_line{
	groupid Distribution_Line;
	name ol_11;
	phases CN;
	from node_13;
	to node_14;
	length 275.331;
	configuration line_configuration_23;

};

object overhead_line{
	groupid Distribution_Line;
	name ol_12;
	phases ABCN;
	from node_8;
	to node_15;
	length 275.240;
	configuration line_configuration_18;

};

object overhead_line{
	groupid Distribution_Line;
	name ol_13;
	phases ABCN;
	from node_15;
	to node_16;
	length 63.897;
	configuration line_configuration_18;

};

object overhead_line{
	groupid Distribution_Line;
	name ol_14;
	phases ABCN;
	from node_17;
	to node_18;
	length 1499.769;
	configuration line_configuration_24;

};

object overhead_line{
	groupid Distribution_Line;
	name ol_15;
	phases ABCN;
	from node_18;
	to node_19;
	length 485.017;
	configuration line_configuration_24;

};

object overhead_line{
	groupid Distribution_Line;
	name ol_16;
	phases ABCN;
	from node_19;
	to node_21;
	length 275.614;
	configuration line_configuration_26;

};

object overhead_line{
	groupid Distribution_Line;
	name ol_17;
	phases ABCN;
	from node_21;
	to node_22;
	length 165.147;
	configuration line_configuration_27;

};

object overhead_line{
	groupid Distribution_Line;
	name ol_18;
	phases BCN;
	from node_25;
	to node_26;
	length 497.233;
	configuration line_configuration_30;

};

object overhead_line{
	groupid Distribution_Line;
	name ol_19;
	phases ABCN;
	from node_18;
	to node_27;
	length 734.441;
	configuration line_configuration_27;

};

object overhead_line{
	groupid Distribution_Line;
	name ol_20;
	phases AN;
	from node_28;
	to node_29;
	length 111.674;
	configuration line_configuration_32;

};

object overhead_line{
	groupid Distribution_Line;
	name ol_21;
	phases AN;
	from node_28;
	to node_30;
	length 174.016;
	configuration line_configuration_32;

};

object overhead_line{
	groupid Distribution_Line;
	name ol_22;
	phases ABCN;
	from node_27;
	to node_31;
	length 229.262;
	configuration line_configuration_27;

};

object overhead_line{
	groupid Distribution_Line;
	name ol_23;
	phases ABCN;
	from node_31;
	to node_32;
	length 234.203;
	configuration line_configuration_18;

};

object overhead_line{
	groupid Distribution_Line;
	name ol_24;
	phases ABCN;
	from node_32;
	to node_34;
	length 693.760;
	configuration line_configuration_18;

};

object overhead_line{
	groupid Distribution_Line;
	name ol_25;
	phases ABCN;
	from node_35;
	to node_36;
	length 277.512;
	configuration line_configuration_27;

};

object overhead_line{
	groupid Distribution_Line;
	name ol_26;
	phases ABCN;
	from node_35;
	to node_41;
	length 428.598;
	configuration line_configuration_21;

};

object overhead_line{
	groupid Distribution_Line;
	name ol_27;
	phases ABCN;
	from node_41;
	to node_42;
	length 208.252;
	configuration line_configuration_24;

};

object overhead_line{
	groupid Distribution_Line;
	name ol_28;
	phases ABCN;
	from node_41;
	to node_43;
	length 288.056;
	configuration line_configuration_24;

};

object overhead_line{
	groupid Distribution_Line;
	name ol_29;
	phases AN;
	from node_43;
	to node_44;
	length 127.857;
	configuration line_configuration_31;

};

object overhead_line{
	groupid Distribution_Line;
	name ol_30;
	phases ABCN;
	from node_43;
	to node_45;
	length 103.017;
	configuration line_configuration_27;

};

object switch{
	name switch_1;
	phases ABCN;
	from node_52;
	to node_2;
	status CLOSED;

};

object switch{
	name switch_2;
	phases ABCN;
	from node_9;
	to node_51;
	status CLOSED;

};

object switch{
	name switch_3;
	phases ABCN;
	from node_15;
	to node_49;
	status CLOSED;

};

object switch{
	name switch_4;
	phases ABCN;
	from node_15;
	to node_17;
	status CLOSED;

};

object switch{
	name switch_5;
	phases ABCN;
	from node_34;
	to node_1;
	status CLOSED;

};

object switch{