#include "water_and_setpoint_schedule_v5.glm"
#include "commercial_schedules.glm"
#include "appliance_schedules.glm"
#include "daily_elasticity_schedules.glm"
#set relax_naming_rules=1
#set minimum_timestep=60
#set profiler=1
module residential {
  implicit_enduses NONE;
};
module tape;
module climate;
module powerflow {
  NR_iteration_limit 50;
  solver_method NR;
  default_maximum_voltage_error 1e-6;
};
module market;
class player {
  double value;
};
class auction {
  double my_avg;
  double my_std;
};
clock {
  timezone PST+8PDT;
  starttime '2009-06-01 09:00:00';
  stoptime '2009-06-01 20:00:00';
};
object underground_line_conductor {
  name underground_line_conductor_2;
  rating.summer.continuous 488.0;
  outer_diameter 2.15;
  conductor_gmr 0.0371 ft;
  conductor_diameter 1.152;
  conductor_resistance 0.091872;
  neutral_gmr 0.0842565914341201 ft;
  neutral_resistance 5.3856;
  neutral_diameter 0.1019;
  neutral_strands 20.0;
  shield_gmr 0.00;
  shield_resistance 0.00;
};
object line_spacing {
  name line_spacing_9;
  distance_AB 0.0 in;
  distance_BC 0.0 in;
  distance_AC 0.0 in;
  distance_AN 0.0 in;
  distance_BN 0.0 in;
  distance_CN 0.0 in;
};
object line_configuration {
  name line_configuration_17;
  conductor_A underground_line_conductor_2;
  conductor_B underground_line_conductor_2;
  conductor_C underground_line_conductor_2;
  conductor_N underground_line_conductor_2;
  spacing line_spacing_9;
};
object auction {
  name Market_1;
  period 900;
  special_mode BUYERS_ONLY;
  unit kW;
  my_avg 0.099172;
  my_std 0.033058;
};
object triplex_node {
  name R1-12-47-3_load_16_tn_B_1;
  phases BS;
  nominal_voltage 120;
};
object triplex_meter {
  name R1-12-47-3_load_16_tm_B_1;
  phases BS;
  groupid Commercial_Meter;
  meter_power_consumption 1.333333+7.000000j;
  nominal_voltage 120;
  bill_mode HOURLY;
  monthly_fee 25.00;
  bill_day 1;
  power_market Market_1;
  parent R1-12-47-3_load_16_tn_B_1;
};
object triplex_meter {
  name R1-12-47-3_tm_1;
  phases BS;
  voltage_1 -60-103.92j;
  voltage_2 -60-103.92j;
  voltage_N 0;
  nominal_voltage 120;
};
object triplex_meter {
  phases BS;
  name tpm6_R1-12-47-3_tm_1;
  groupid Residential_Meter;
  meter_power_consumption 2+11j;
  bill_mode HOURLY;
  monthly_fee 10.00;
  bill_day 1;
  nominal_voltage 120;
  power_market Market_1;
  parent R1-12-47-3_tm_1;
};
object transformer_configuration {
  name transformer_configuration_137;
  connect_type WYE_WYE;
  install_type POLETOP;
  primary_voltage 12470.000 V;
  secondary_voltage 480 V;
  power_rating 50.0;
  powerC_rating 50.0;
  resistance 0.00200;
  reactance 0.01000;
  shunt_impedance 391.760+396.403j;
};
object meter {
  name R1-12-47-3_meter_21;
  phases ABCN;
  nominal_voltage 480;
};
object transformer_configuration {
  name transformer_configuration_142;
  connect_type WYE_WYE;
  install_type POLETOP;
  primary_voltage 12470.000 V;
  secondary_voltage 480 V;
  power_rating 75.0;
  powerA_rating 0.0;
  powerB_rating 25.0;
  powerC_rating 50.0;
  resistance 0.00133;
  reactance 0.00667;
  shunt_impedance 443.910+482.260j;
};
object node {
  phases ABCN;
  name R1-12-47-3_load_21_strip_node;
  nominal_voltage 480.000000;
};
object triplex_meter {
  phases BS;
  name tpm9_R1-12-47-3_tm_1;
  groupid Residential_Meter;
  meter_power_consumption 2+11j;
  bill_mode HOURLY;
  monthly_fee 10.00;
  bill_day 1;
  nominal_voltage 120;
  power_market Market_1;
  parent R1-12-47-3_tm_1;
};
object house {
  name house9_R1-12-47-3_tm_1;
  groupid Residential;
  schedule_skew 62;
  floor_area 1298;
  number_of_stories 1;
  ceiling_height 8;
  over_sizing_factor 0.1;
  Rroof 30.08;
  Rwall 17.83;
  Rfloor 15.63;
  glazing_layers 2;
  glass_type 1;
  glazing_treatment 1;
  window_frame 2;
  Rdoors 2.42;
  airchange_per_hour 0.59;
  cooling_COP 3.2;
  air_temperature 71.50;
  mass_temperature 71.50;
  total_thermal_mass_per_floor_area 3.387;
  heating_system_type HEAT_PUMP;
  heating_COP 3.2;
  cooling_system_type ELECTRIC;
  auxiliary_strategy DEADBAND;
  auxiliary_system_type ELECTRIC;
  motor_model BASIC;
  motor_efficiency AVERAGE;
  breaker_amps 1000;
  hvac_breaker_rating 1000;
  cooling_setpoint 85.58;
  heating_setpoint 82.58;
  parent tpm9_R1-12-47-3_tm_1;
};
object controller {
  schedule_skew 62;
  bid_mode OFF;
  control_mode DOUBLE_RAMP;
  resolve_mode DEADBAND;
  heating_range_high -1.222;
  cooling_range_high 1.222;
  heating_range_low -0.005;
  cooling_range_low -0.005;
  heating_ramp_high -2.756;
  cooling_ramp_high 2.756;
  heating_ramp_low -2.756;
  cooling_ramp_low 2.756;
  cooling_base_setpoint cooling7*1.50+85.58;
  heating_base_setpoint heating5*0.03+73.79;
  period 900;
  average_target my_avg;
  standard_deviation_target my_std;
  target air_temperature;
  heating_setpoint heating_setpoint;
  heating_demand last_heating_load;
  cooling_setpoint cooling_setpoint;
  cooling_demand last_cooling_load;
  deadband thermostat_deadband;
  total hvac_load;
  load hvac_load;
  state power_state;
  name controller_2;
  market Market_1;
  parent house9_R1-12-47-3_tm_1;
};
object node {
  name R1-12-47-3_node_17;
  phases ABCN;
  voltage_A 7200+0.0j;
  voltage_B -3600-6235j;
  voltage_C -3600+6235j;
  nominal_voltage 7200;
};
object node {
  name R1-12-47-3_node_18;
  phases ABCN;
  voltage_A 7200+0.0j;
  voltage_B -3600-6235j;
  voltage_C -3600+6235j;
  nominal_voltage 7200;
};
object overhead_line_conductor {
  name overhead_line_conductor_6;
  rating.summer.continuous 180.0;
  geometric_mean_radius 0.00418 ft;
  resistance 1.62570;
};
object line_spacing {
  name line_spacing_10;
  distance_AB 57.6 in;
  distance_BC 57.6 in;
  distance_AC 57.6 in;
  distance_AN 84.0 in;
  distance_BN 84.0 in;
  distance_CN 84.0 in;
};
object line_configuration {
  name line_configuration_24;
  conductor_A overhead_line_conductor_6;
  conductor_B overhead_line_conductor_6;
  conductor_C overhead_line_conductor_6;
  conductor_N overhead_line_conductor_6;
  spacing line_spacing_10;
};
object overhead_line {
  groupid Distribution_Line;
  name R1-12-47-3_ol_14;
  phases ABCN;
  length 1499.769;
  from R1-12-47-3_node_17;
  to R1-12-47-3_node_18;
  configuration line_configuration_24;
};
object triplex_node {
  name R1-12-47-3_load_17_tn_B_1;
  phases BS;
  nominal_voltage 120;
};
object triplex_meter {
  name R1-12-47-3_load_17_tm_B_1;
  phases BS;
  groupid Commercial_Meter;
  meter_power_consumption 1.333333+7.000000j;
  nominal_voltage 120;
  bill_mode HOURLY;
  monthly_fee 25.00;
  bill_day 1;
  power_market Market_1;
  parent R1-12-47-3_load_17_tn_B_1;
};
object house {
  name stripmallR1-12-47-3_load_17_B1;
  groupid Commercial;
  schedule_skew 1800;
  floor_area 1717;
  design_internal_gains 21097;
  number_of_doors 1;
  aspect_ratio 1.50;
  total_thermal_mass_per_floor_area 5.53;
  interior_surface_heat_transfer_coeff 0.59;
  interior_exterior_wall_ratio -0.1;
  exterior_floor_fraction 0.800;
  exterior_ceiling_fraction 1.000;
  Rwall 18.3;
  Rroof 19.0;
  Rfloor 40.00;
  Rdoors 3.0;
  exterior_wall_fraction 0.40;
  glazing_layers TWO;
  glass_type GLASS;
  glazing_treatment LOW_S;
  window_frame NONE;
  airchange_per_hour 1.76;
  window_wall_ratio 0.050;
  heating_system_type GAS;
  auxiliary_system_type NONE;
  fan_type ONE_SPEED;
  cooling_system_type ELECTRIC;
  air_temperature 70.45;
  mass_temperature 70.45;
  over_sizing_factor 0.1;
  cooling_COP 2.73;
  cooling_setpoint 85;
  heating_setpoint stripmall_heating;
  parent R1-12-47-3_load_17_tm_B_1;
};
object ZIPload {
  name lights_R1-12-47-3_load_17_B_1;
  schedule_skew 1800;
  heatgain_fraction 1.0;
  power_fraction 0.40;
  impedance_fraction 0.20;
  current_fraction 0.40;
  power_pf 1.00;
  current_pf 1.00;
  impedance_pf 1.00;
  base_power stripmall_lights*1.52;
  parent stripmallR1-12-47-3_load_17_B1;
};
object triplex_node {
  name R1-12-47-3_load_1_tn_C_2;
  phases CS;
  nominal_voltage 120;
};
object triplex_meter {
  name R1-12-47-3_load_1_tm_C_2;
  phases CS;
  groupid Commercial_Meter;
  meter_power_consumption 1.333333+7.000000j;
  nominal_voltage 120;
  bill_mode HOURLY;
  monthly_fee 25.00;
  bill_day 1;
  power_market Market_1;
  parent R1-12-47-3_load_1_tn_C_2;
};
object house {
  name stripmallR1-12-47-3_load_1_C2;
  groupid Commercial;
  schedule_skew -3600;
  floor_area 2897;
  design_internal_gains 35596;
  number_of_doors 1;
  aspect_ratio 1.50;
  total_thermal_mass_per_floor_area 2.36;
  interior_surface_heat_transfer_coeff 0.59;
  interior_exterior_wall_ratio -0.1;
  exterior_floor_fraction 0.800;
  exterior_ceiling_fraction 1.000;
  Rwall 18.3;
  Rroof 19.0;
  Rfloor 40.00;
  Rdoors 3.0;
  exterior_wall_fraction 0.40;
  glazing_layers TWO;
  glass_type GLASS;
  glazing_treatment LOW_S;
  window_frame NONE;
  airchange_per_hour 1.76;
  window_wall_ratio 0.050;
  heating_system_type GAS;
  auxiliary_system_type NONE;
  fan_type ONE_SPEED;
  cooling_system_type ELECTRIC;
  air_temperature 68.14;
  mass_temperature 68.14;
  over_sizing_factor 0.1;
  cooling_COP 3.07;
  cooling_setpoint 85;
  heating_setpoint stripmall_heating;
  parent R1-12-47-3_load_1_tm_C_2;
};
object triplex_node {
  name R1-12-47-3_load_4_tn_C_2;
  phases CS;
  nominal_voltage 120;
};
object triplex_meter {
  name R1-12-47-3_load_4_tm_C_2;
  phases CS;
  groupid Commercial_Meter;
  meter_power_consumption 1.333333+7.000000j;
  nominal_voltage 120;
  bill_mode HOURLY;
  monthly_fee 25.00;
  bill_day 1;
  power_market Market_1;
  parent R1-12-47-3_load_4_tn_C_2;
};
object house {
  name stripmallR1-12-47-3_load_4_C2;
  groupid Commercial;
  schedule_skew -5400;
  floor_area 3116;
  design_internal_gains 38281;
  number_of_doors 1;
  aspect_ratio 1.50;
  total_thermal_mass_per_floor_area 2.36;
  interior_surface_heat_transfer_coeff 0.59;
  interior_exterior_wall_ratio -0.1;
  exterior_floor_fraction 0.800;
  exterior_ceiling_fraction 1.000;
  Rwall 18.3;
  Rroof 19.0;
  Rfloor 40.00;
  Rdoors 3.0;
  exterior_wall_fraction 0.40;
  glazing_layers TWO;
  glass_type GLASS;
  glazing_treatment LOW_S;
  window_frame NONE;
  airchange_per_hour 1.76;
  window_wall_ratio 0.050;
  heating_system_type GAS;
  auxiliary_system_type NONE;
  fan_type ONE_SPEED;
  cooling_system_type ELECTRIC;
  air_temperature 70.35;
  mass_temperature 70.35;
  over_sizing_factor 0.1;
  cooling_COP 3.46;
  cooling_setpoint 85;
  heating_setpoint stripmall_heating;
  parent R1-12-47-3_load_4_tm_C_2;
};
object ZIPload {
  name lights_R1-12-47-3_load_4_C_2;
  schedule_skew -5400;
  heatgain_fraction 1.0;
  power_fraction 0.40;
  impedance_fraction 0.20;
  current_fraction 0.40;
  power_pf 1.00;
  current_pf 1.00;
  impedance_pf 1.00;
  base_power stripmall_lights*3.42;
  parent stripmallR1-12-47-3_load_4_C2;
};
object triplex_node {
  name R1-12-47-3_load_20_tn_C_2;
  phases CS;
  nominal_voltage 120;
};
object triplex_meter {
  name R1-12-47-3_load_20_tm_C_2;
  phases CS;
  groupid Commercial_Meter;
  meter_power_consumption 1.333333+7.000000j;
  nominal_voltage 120;
  bill_mode HOURLY;
  monthly_fee 25.00;
  bill_day 1;
  power_market Market_1;
  parent R1-12-47-3_load_20_tn_C_2;
};
object house {
  name stripmallR1-12-47-3_load_20_C2;
  groupid Commercial;
  schedule_skew 3600;
  floor_area 2700;
  design_internal_gains 33173;
  number_of_doors 1;
  aspect_ratio 1.50;
  total_thermal_mass_per_floor_area 3.09;
  interior_surface_heat_transfer_coeff 0.59;
  interior_exterior_wall_ratio -0.1;
  exterior_floor_fraction 0.800;
  exterior_ceiling_fraction 1.000;
  Rwall 18.3;
  Rroof 19.0;
  Rfloor 40.00;
  Rdoors 3.0;
  exterior_wall_fraction 0.40;
  glazing_layers TWO;
  glass_type GLASS;
  glazing_treatment LOW_S;
  window_frame NONE;
  airchange_per_hour 1.76;
  window_wall_ratio 0.050;
  heating_system_type GAS;
  auxiliary_system_type NONE;
  fan_type ONE_SPEED;
  cooling_system_type ELECTRIC;
  air_temperature 68.01;
  mass_temperature 68.01;
  over_sizing_factor 0.1;
  cooling_COP 2.81;
  cooling_setpoint 85;
  heating_setpoint stripmall_heating;
  parent R1-12-47-3_load_20_tm_C_2;
};
object ZIPload {
  name occ_R1-12-47-3_load_20_C_2;
  schedule_skew 3600;
  heatgain_fraction 1.0;
  power_fraction 0.0;
  impedance_fraction 0.0;
  current_fraction 0.0;
  power_pf 1.0;
  base_power stripmall_occupancy*2.44;
  parent stripmallR1-12-47-3_load_20_C2;
};
object line_spacing {
  name line_spacing_16;
  distance_BC 57.6 in;
  distance_BN 84.0 in;
  distance_CN 84.0 in;
};
object node {
  phases ABCN;
  name R1-12-47-3_load_18_strip_node;
  nominal_voltage 480.000000;
};
object triplex_node {
  name R1-12-47-3_load_2_tn_A_1;
  phases AS;
  nominal_voltage 120;
};
object triplex_meter {
  name R1-12-47-3_load_2_tm_A_1;
  phases AS;
  groupid Commercial_Meter;
  meter_power_consumption 1.333333+7.000000j;
  nominal_voltage 120;
  bill_mode HOURLY;
  monthly_fee 25.00;
  bill_day 1;
  power_market Market_1;
  parent R1-12-47-3_load_2_tn_A_1;
};
object house {
  name stripmallR1-12-47-3_load_2_A1;
  groupid Commercial;
  schedule_skew 3600;
  floor_area 2466;
  design_internal_gains 30298;
  number_of_doors 1;
  aspect_ratio 1.50;
  total_thermal_mass_per_floor_area 4.45;
  interior_surface_heat_transfer_coeff 0.59;
  interior_exterior_wall_ratio -0.1;
  exterior_floor_fraction 0.800;
  exterior_ceiling_fraction 1.000;
  Rwall 18.3;
  Rroof 19.0;
  Rfloor 40.00;
  Rdoors 3.0;
  exterior_wall_fraction 0.40;
  glazing_layers TWO;
  glass_type GLASS;
  glazing_treatment LOW_S;
  window_frame NONE;
  airchange_per_hour 1.76;
  window_wall_ratio 0.050;
  heating_system_type GAS;
  auxiliary_system_type NONE;
  fan_type ONE_SPEED;
  cooling_system_type ELECTRIC;
  air_temperature 69.75;
  mass_temperature 69.75;
  over_sizing_factor 0.1;
  cooling_COP 2.55;
  cooling_setpoint 85;
  heating_setpoint stripmall_heating;
  parent R1-12-47-3_load_2_tm_A_1;
};
object controller {
  schedule_skew 3600;
  bid_mode OFF;
  control_mode RAMP;
  range_high 2.946;
  range_low -0.005;
  ramp_high 2.411;
  ramp_low 2.411;
  base_setpoint stripmall_cooling;
  period 900;
  average_target my_avg;
  standard_deviation_target my_std;
  target air_temperature;
  setpoint cooling_setpoint;
  demand last_cooling_load;
  deadband thermostat_deadband;
  total hvac_load;
  load hvac_load;
  state power_state;
  name controller_5;
  market Market_1;
  parent stripmallR1-12-47-3_load_2_A1;
};
object transformer_configuration {
  name CTTF_config_A_R1-12-47-3_load_14;
  connect_type SINGLE_PHASE_CENTER_TAPPED;
  install_type POLETOP;
  impedance 0.00033+0.0022j;
  shunt_impedance 100000+100000j;
  primary_voltage 480.000;
  secondary_voltage 207.846;
  powerA_rating 50 kVA;
};
object recorder {
  property past_market.clearing_price,my_avg,my_std;
  limit 702720;
  interval 900;
  file R1_1247_3_t6_markets.csv;
  name recorder_0;
  parent Market_1;
};
object transformer_configuration {
  name CTTF_config_C_R1-12-47-3_load_20;
  connect_type SINGLE_PHASE_CENTER_TAPPED;
  install_type POLETOP;
  impedance 0.00033+0.0022j;
  shunt_impedance 100000+100000j;
  primary_voltage 480.000;
  secondary_voltage 207.846;
  powerC_rating 100 kVA;
};
object billdump {
  runtime 2010-01-01 03:00:00;
  filename R1_1247_3_t6_bill_res12.csv;
  group Residential_Meter;
  meter_type TRIPLEX_METER;
  name billdump_21;
};
object billdump {
  runtime 2010-01-01 03:00:00;
  filename R1_1247_3_t6_bill_commSP12.csv;
  group Commercial_Meter;
  meter_type TRIPLEX_METER;
  name billdump_22;
};
object transformer_configuration {
  name transformer_configuration_132;
  connect_type SINGLE_PHASE_CENTER_TAPPED;
  install_type POLETOP;
  primary_voltage 7200 V;
  secondary_voltage 120 V;
  power_rating 450.0;
  powerB_rating 450.0;
  resistance 0.00033;
  reactance 0.00022;
  shunt_impedance 1226.160+1358.242j;
};
object overhead_line_conductor {
  name overhead_line_conductor_5;
  rating.summer.continuous 149.0;
  geometric_mean_radius 0.00663 ft;
  resistance 1.50000;
};
object line_configuration {
  name line_configuration_27;
  conductor_A overhead_line_conductor_5;
  conductor_B overhead_line_conductor_5;
  conductor_C overhead_line_conductor_5;
  conductor_N overhead_line_conductor_5;
  spacing line_spacing_10;
};
object line_spacing {
  name line_spacing_12;
  distance_CN 84.0 in;
};
object line_configuration {
  name line_configuration_20;
  conductor_C overhead_line_conductor_5;
  conductor_N overhead_line_conductor_5;
  spacing line_spacing_12;
};
object triplex_node {
  name R1-12-47-3_load_10_tn_B_1;
  phases BS;
  nominal_voltage 120;
};
object triplex_meter {
  name R1-12-47-3_load_10_tm_B_1;
  phases BS;
  groupid Commercial_Meter;
  meter_power_consumption 1.333333+7.000000j;
  nominal_voltage 120;
  bill_mode HOURLY;
  monthly_fee 25.00;
  bill_day 1;
  power_market Market_1;
  parent R1-12-47-3_load_10_tn_B_1;
};
object house {
  name stripmallR1-12-47-3_load_10_B1;
  groupid Commercial;
  schedule_skew 5400;
  floor_area 2202;
  design_internal_gains 27061;
  number_of_doors 1;
  aspect_ratio 1.50;
  total_thermal_mass_per_floor_area 3.18;
  interior_surface_heat_transfer_coeff 0.59;
  interior_exterior_wall_ratio -0.1;
  exterior_floor_fraction 0.800;
  exterior_ceiling_fraction 1.000;
  Rwall 18.3;
  Rroof 19.0;
  Rfloor 40.00;
  Rdoors 3.0;
  exterior_wall_fraction 0.40;
  glazing_layers TWO;
  glass_type GLASS;
  glazing_treatment LOW_S;
  window_frame NONE;
  airchange_per_hour 1.76;
  window_wall_ratio 0.050;
  heating_system_type GAS;
  auxiliary_system_type NONE;
  fan_type ONE_SPEED;
  cooling_system_type ELECTRIC;
  air_temperature 71.37;
  mass_temperature 71.37;
  over_sizing_factor 0.1;
  cooling_COP 2.67;
  cooling_setpoint 85;
  heating_setpoint stripmall_heating;
  parent R1-12-47-3_load_10_tm_B_1;
};
object controller {
  schedule_skew 5400;
  bid_mode OFF;
  control_mode RAMP;
  range_high 2.946;
  range_low -0.005;
  ramp_high 2.411;
  ramp_low 2.411;
  base_setpoint stripmall_cooling;
  period 900;
  average_target my_avg;
  standard_deviation_target my_std;
  target air_temperature;
  setpoint cooling_setpoint;
  demand last_cooling_load;
  deadband thermostat_deadband;
  total hvac_load;
  load hvac_load;
  state power_state;
  name controller_24;
  market Market_1;
  parent stripmallR1-12-47-3_load_10_B1;
};
object node {
  name R1-12-47-3_node_40;
  phases BN;
  voltage_B -3600-6235j;
  nominal_voltage 7200;
};
object node {
  name R1-12-47-3_node_36;
  phases ABCN;
  voltage_A 7200+0.0j;
  voltage_B -3600-6235j;
  voltage_C -3600+6235j;
  nominal_voltage 7200;
};
object fuse {
  name R1-12-47-3_fuse_7;
  phases BN;
  mean_replacement_time 1000;
  current_limit 50000;
  status CLOSED;
  from R1-12-47-3_node_36;
  to R1-12-47-3_node_40;
};
object house {
  name stripmallR1-12-47-3_load_16_B1;
  groupid Commercial;
  schedule_skew -1800;
  floor_area 2638;
  design_internal_gains 32413;
  number_of_doors 1;
  aspect_ratio 1.50;
  total_thermal_mass_per_floor_area 4.36;
  interior_surface_heat_transfer_coeff 0.59;
  interior_exterior_wall_ratio -0.1;
  exterior_floor_fraction 0.800;
  exterior_ceiling_fraction 1.000;
  Rwall 18.3;
  Rroof 19.0;
  Rfloor 40.00;
  Rdoors 3.0;
  exterior_wall_fraction 0.40;
  glazing_layers TWO;
  glass_type GLASS;
  glazing_treatment LOW_S;
  window_frame NONE;
  airchange_per_hour 1.76;
  window_wall_ratio 0.050;
  heating_system_type GAS;
  auxiliary_system_type NONE;
  fan_type ONE_SPEED;
  cooling_system_type ELECTRIC;
  air_temperature 69.26;
  mass_temperature 69.26;
  over_sizing_factor 0.1;
  cooling_COP 3.03;
  cooling_setpoint 85;
  heating_setpoint stripmall_heating;
  parent R1-12-47-3_load_16_tm_B_1;
};
object controller {
  schedule_skew -1800;
  bid_mode OFF;
  control_mode RAMP;
  range_high 2.946;
  range_low -0.005;
  ramp_high 2.411;
  ramp_low 2.411;
  base_setpoint stripmall_cooling;
  period 900;
  average_target my_avg;
  standard_deviation_target my_std;
  target air_temperature;
  setpoint cooling_setpoint;
  demand last_cooling_load;
  deadband thermostat_deadband;
  total hvac_load;
  load hvac_load;
  state power_state;
  name controller_33;
  market Market_1;
  parent stripmallR1-12-47-3_load_16_B1;
};
object triplex_node {
  name R1-12-47-3_load_21_tn_B_1;
  phases BS;
  nominal_voltage 120;
};
object triplex_meter {
  name R1-12-47-3_load_21_tm_B_1;
  phases BS;
  groupid Commercial_Meter;
  meter_power_consumption 1.333333+7.000000j;
  nominal_voltage 120;
  bill_mode HOURLY;
  monthly_fee 25.00;
  bill_day 1;
  power_market Market_1;
  parent R1-12-47-3_load_21_tn_B_1;
};
object house {
  name stripmallR1-12-47-3_load_21_B1;
  groupid Commercial;
  schedule_skew 3600;
  floor_area 2208;
  design_internal_gains 27126;
  number_of_doors 1;
  aspect_ratio 1.50;
  total_thermal_mass_per_floor_area 3.23;
  interior_surface_heat_transfer_coeff 0.59;
  interior_exterior_wall_ratio -0.1;
  exterior_floor_fraction 0.800;
  exterior_ceiling_fraction 1.000;
  Rwall 18.3;
  Rroof 19.0;
  Rfloor 40.00;
  Rdoors 3.0;
  exterior_wall_fraction 0.40;
  glazing_layers TWO;
  glass_type GLASS;
  glazing_treatment LOW_S;
  window_frame NONE;
  airchange_per_hour 1.76;
  window_wall_ratio 0.050;
  heating_system_type GAS;
  auxiliary_system_type NONE;
  fan_type ONE_SPEED;
  cooling_system_type ELECTRIC;
  air_temperature 71.31;
  mass_temperature 71.31;
  over_sizing_factor 0.1;
  cooling_COP 2.88;
  cooling_setpoint 85;
  heating_setpoint stripmall_heating;
  parent R1-12-47-3_load_21_tm_B_1;
};
object ZIPload {
  name occ_R1-12-47-3_load_21_B_1;
  schedule_skew 3600;
  heatgain_fraction 1.0;
  power_fraction 0.0;
  impedance_fraction 0.0;
  current_fraction 0.0;
  power_pf 1.0;
  base_power stripmall_occupancy*1.87;
  parent stripmallR1-12-47-3_load_21_B1;
};
object triplex_node {
  name R1-12-47-3_load_20_tn_B_2;
  phases BS;
  nominal_voltage 120;
};
object triplex_meter {
  name R1-12-47-3_load_20_tm_B_2;
  phases BS;
  groupid Commercial_Meter;
  meter_power_consumption 1.333333+7.000000j;
  nominal_voltage 120;
  bill_mode HOURLY;
  monthly_fee 25.00;
  bill_day 1;
  power_market Market_1;
  parent R1-12-47-3_load_20_tn_B_2;
};
object house {
  name stripmallR1-12-47-3_load_20_B2;
  groupid Commercial;
  schedule_skew -1800;
  floor_area 2378;
  design_internal_gains 29218;
  number_of_doors 1;
  aspect_ratio 1.50;
  total_thermal_mass_per_floor_area 4.30;
  interior_surface_heat_transfer_coeff 0.59;
  interior_exterior_wall_ratio -0.1;
  exterior_floor_fraction 0.800;
  exterior_ceiling_fraction 1.000;
  Rwall 18.3;
  Rroof 19.0;
  Rfloor 40.00;
  Rdoors 3.0;
  exterior_wall_fraction 0.40;
  glazing_layers TWO;
  glass_type GLASS;
  glazing_treatment LOW_S;
  window_frame NONE;
  airchange_per_hour 1.76;
  window_wall_ratio 0.050;
  heating_system_type GAS;
  auxiliary_system_type NONE;
  fan_type ONE_SPEED;
  cooling_system_type ELECTRIC;
  air_temperature 69.79;
  mass_temperature 69.79;
  over_sizing_factor 0.1;
  cooling_COP 2.98;
  cooling_setpoint 85;
  heating_setpoint stripmall_heating;
  parent R1-12-47-3_load_20_tm_B_2;
};
object ZIPload {
  name ext_R1-12-47-3_load_20_B_2;
  schedule_skew -1800;
  heatgain_fraction 0.0;
  power_fraction 0.40;
  impedance_fraction 0.20;
  current_fraction 0.40;
  power_pf 1.00;
  current_pf 1.00;
  impedance_pf 1.00;
  base_power stripmall_exterior*2.14;
  parent stripmallR1-12-47-3_load_20_B2;
};
object triplex_line_configuration {
  name commercial_line_config;
  insulation_thickness 0.08;
  diameter 0.522;
};
object triplex_line_conductor {
  resistance 0.48;
  geometric_mean_radius 0.0158;
  name triplex_line_conductor0;
  parent commercial_line_config;
};
object triplex_node {
  name R1-12-47-3_load_20_tn_C_1;
  phases CS;
  nominal_voltage 120;
};
object triplex_meter {
  name R1-12-47-3_load_20_tm_C_1;
  phases CS;
  groupid Commercial_Meter;
  meter_power_consumption 1.333333+7.000000j;
  nominal_voltage 120;
  bill_mode HOURLY;
  monthly_fee 25.00;
  bill_day 1;
  power_market Market_1;
  parent R1-12-47-3_load_20_tn_C_1;
};
object house {
  name stripmallR1-12-47-3_load_20_C1;
  groupid Commercial;
  schedule_skew 1800;
  floor_area 2700;
  design_internal_gains 33173;
  number_of_doors 1;
  aspect_ratio 1.50;
  total_thermal_mass_per_floor_area 3.09;
  interior_surface_heat_transfer_coeff 0.59;
  interior_exterior_wall_ratio -0.1;
  exterior_floor_fraction 0.800;
  exterior_ceiling_fraction 1.000;
  Rwall 18.3;
  Rroof 19.0;
  Rfloor 40.00;
  Rdoors 3.0;
  exterior_wall_fraction 0.40;
  glazing_layers TWO;
  glass_type GLASS;
  glazing_treatment LOW_S;
  window_frame NONE;
  airchange_per_hour 1.76;
  window_wall_ratio 0.050;
  heating_system_type GAS;
  auxiliary_system_type NONE;
  fan_type ONE_SPEED;
  cooling_system_type ELECTRIC;
  air_temperature 70.29;
  mass_temperature 70.29;
  over_sizing_factor 0.1;
  cooling_COP 3.17;
  cooling_setpoint 85;
  heating_setpoint stripmall_heating;
  parent R1-12-47-3_load_20_tm_C_1;
};
object ZIPload {
  name wh_R1-12-47-3_load_20_C_1;
  schedule_skew 1800;
  heatgain_fraction 1.0;
  power_fraction 0.0;
  impedance_fraction 0.0;
  current_fraction 0.0;
  power_pf 1.0;
  base_power stripmall_gas*2.98;
  parent stripmallR1-12-47-3_load_20_C1;
};
object meter {
  name R1-12-47-3_meter_10;
  phases ABCN;
  nominal_voltage 480;
};
object node {
  name R1-12-47-3_node_27;
  phases ABCN;
  voltage_A 7200+0.0j;
  voltage_B -3600-6235j;
  voltage_C -3600+6235j;
  nominal_voltage 7200;
};
object transformer {
  groupid Distribution_Trans;
  name R1-12-47-3_xfmr_11;
  phases ABCN;
  from R1-12-47-3_node_27;
  to R1-12-47-3_meter_10;
  configuration transformer_configuration_142;
};
object line_spacing {
  name line_spacing_13;
  distance_AN 84.0 in;
};
object line_configuration {
  name line_configuration_32;
  conductor_A overhead_line_conductor_5;
  conductor_N overhead_line_conductor_5;
  spacing line_spacing_13;
};
object node {
  name R1-12-47-3_node_29;
  phases AN;
  voltage_A 7200+0.0j;
  nominal_voltage 7200;
};
object node {
  name R1-12-47-3_node_28;
  phases AN;
  voltage_A 7200+0.0j;
  nominal_voltage 7200;
};
object overhead_line {
  groupid Distribution_Line;
  name R1-12-47-3_ol_20;
  phases AN;
  length 111.674;
  from R1-12-47-3_node_28;
  to R1-12-47-3_node_29;
  configuration line_configuration_32;
};
object triplex_node {
  name R1-12-47-3_load_19_tn_A_1;
  phases AS;
  nominal_voltage 120;
};
object triplex_node {
  name R1-12-47-3_load_3_tn_A_1;
  phases AS;
  nominal_voltage 120;
};
object triplex_node {
  name R1-12-47-3_load_20_tn_A_2;
  phases AS;
  nominal_voltage 120;
};
object triplex_meter {
  name R1-12-47-3_load_20_tm_A_2;
  phases AS;
  groupid Commercial_Meter;
  meter_power_consumption 1.333333+7.000000j;
  nominal_voltage 120;
  bill_mode HOURLY;
  monthly_fee 25.00;
  bill_day 1;
  power_market Market_1;
  parent R1-12-47-3_load_20_tn_A_2;
};
object house {
  name stripmallR1-12-47-3_load_20_A2;
  groupid Commercial;
  schedule_skew 0;
  floor_area 2798;
  design_internal_gains 34382;
  number_of_doors 1;
  aspect_ratio 1.50;
  total_thermal_mass_per_floor_area 5.68;
  interior_surface_heat_transfer_coeff 0.59;
  interior_exterior_wall_ratio -0.1;
  exterior_floor_fraction 0.800;
  exterior_ceiling_fraction 1.000;
  Rwall 18.3;
  Rroof 19.0;
  Rfloor 40.00;
  Rdoors 3.0;
  exterior_wall_fraction 0.40;
  glazing_layers TWO;
  glass_type GLASS;
  glazing_treatment LOW_S;
  window_frame NONE;
  airchange_per_hour 1.76;
  window_wall_ratio 0.050;
  heating_system_type GAS;
  auxiliary_system_type NONE;
  fan_type ONE_SPEED;
  cooling_system_type ELECTRIC;
  air_temperature 71.49;
  mass_temperature 71.49;
  over_sizing_factor 0.1;
  cooling_COP 3.23;
  cooling_setpoint 85;
  heating_setpoint stripmall_heating;
  parent R1-12-47-3_load_20_tm_A_2;
};
object ZIPload {
  name lights_R1-12-47-3_load_20_A_2;
  schedule_skew 0;
  heatgain_fraction 1.0;
  power_fraction 0.40;
  impedance_fraction 0.20;
  current_fraction 0.40;
  power_pf 1.00;
  current_pf 1.00;
  impedance_pf 1.00;
  base_power stripmall_lights*2.42;
  parent stripmallR1-12-47-3_load_20_A2;
};
object transformer_configuration {
  name transformer_configuration_144;
  connect_type WYE_WYE;
  install_type POLETOP;
  primary_voltage 12470.000 V;
  secondary_voltage 480 V;
  power_rating 25.0;
  powerA_rating 25.0;
  resistance 0.00400;
  reactance 0.02000;
  shunt_impedance 339.610+346.401j;
};
object meter {
  name R1-12-47-3_meter_12;
  phases AN;
  nominal_voltage 480;
};
object transformer {
  groupid Distribution_Trans;
  name R1-12-47-3_xfmr_13;
  phases AN;
  from R1-12-47-3_node_29;
  to R1-12-47-3_meter_12;
  configuration transformer_configuration_144;
};
object triplex_node {
  name R1-12-47-3_load_7_tn_A_1;
  phases AS;
  nominal_voltage 120;
};
object triplex_meter {
  name R1-12-47-3_load_7_tm_A_1;
  phases AS;
  groupid Commercial_Meter;
  meter_power_consumption 1.333333+7.000000j;
  nominal_voltage 120;
  bill_mode HOURLY;
  monthly_fee 25.00;
  bill_day 1;
  power_market Market_1;
  parent R1-12-47-3_load_7_tn_A_1;
};
object transformer_configuration {
  name CTTF_config_A_R1-12-47-3_load_21;
  connect_type SINGLE_PHASE_CENTER_TAPPED;
  install_type POLETOP;
  impedance 0.00033+0.0022j;
  shunt_impedance 100000+100000j;
  primary_voltage 480.000;
  secondary_voltage 207.846;
  powerA_rating 50 kVA;
};
object triplex_node {
  name R1-12-47-3_load_21_tn_A_1;
  phases AS;
  nominal_voltage 120;
};
object transformer {
  name R1-12-47-3_load_21_CTTF_A_1;
  phases AS;
  groupid Distribution_Trans;
  from R1-12-47-3_load_21_strip_node;
  to R1-12-47-3_load_21_tn_A_1;
  configuration CTTF_config_A_R1-12-47-3_load_21;
};
object node {
  phases ABCN;
  name R1-12-47-3_load_20_strip_node;
  nominal_voltage 480.000000;
};
object transformer {
  name R1-12-47-3_load_20_CTTF_C_2;
  phases CS;
  groupid Distribution_Trans;
  from R1-12-47-3_load_20_strip_node;
  to R1-12-47-3_load_20_tn_C_2;
  configuration CTTF_config_C_R1-12-47-3_load_20;
};
object line_spacing {
  name line_spacing_commABC;