//Input feeder information for Taxonomy Feeders with different cases.
//Started on 10/21/09. This version created 25-Feb-2019 18:33:41.
// This version was created to perform FY11 Department of Energy
// analysis on the benefits of the SGIG grant projects.

clock {
     timezone PST+8PDT;
     starttime '2009-01-01 00:00:00';
     stoptime '2010-01-02 00:00:00';
}

#include "appliance_schedules.glm";
#include "water_and_setpoint_schedule_v5.glm";
#include "commercial_schedules.glm";
#include "daily_elasticity_schedules.glm";
//#define stylesheet=http://gridlab-d.svn.sourceforge.net/viewvc/gridlab-d/trunk/core/gridlabd-2_0
#set minimum_timestep=60;
#set profiler=1;
#set relax_naming_rules=1;

module tape;
module climate;
module residential {
     implicit_enduses NONE;
};
module powerflow {
     solver_method NR;
     NR_iteration_limit 50;
};

class player {
     double value;
};

module market;

class auction {
     double my_avg;
     double my_std;
};

object player {
     name CPP_days_R1;
     file CPP_days_R1.player;
};

object auction {
     name Market_1;
     period 900;
     special_mode BUYERS_ONLY;
     unit kW;
     my_avg 0.091393;
     my_std 0.030465;
     object player {
          file R1_2500_1_t0_TOU.player;
          loop 10;
          property current_market.clearing_price;
     };
}

object climate {
     name "CA-San_francisco";
     tmyfile "CA-San_francisco.tmy2";
     interpolate QUADRATIC;
};

//Configurations

object regulator_configuration {     
      name regulator_configuration_1168;     
      name feeder_reg_cfg;     
      Control OUTPUT_VOLTAGE;     
      band_center 14975.0;     
      band_width 240;     
      connect_type WYE_WYE;     
      time_delay 30;     
      raise_taps 16;     
      lower_taps 16;     
      regulation 0.10;     
      tap_pos_A 0;     
      tap_pos_B 0;     
      tap_pos_C 0;     
}       

object regulator_configuration {     
      name regulator_configuration_9997;     
      name votlage_reg_cfg;     
      Control OUTPUT_VOLTAGE;     
      band_center 14975.0;     
      band_width 240;     
      connect_type WYE_WYE;     
      time_delay 30;     
      raise_taps 16;     
      lower_taps 16;     
      regulation 0.10;     
      tap_pos_A 0;     
      tap_pos_B 0;     
      tap_pos_C 0;     
}       

object line_configuration {     
      name line_configuration_25;     
      conductor_A underground_line_conductor_2;     
      conductor_N underground_line_conductor_2;     
      spacing line_spacing_11;     
}       

object line_configuration {     
      name line_configuration_26;     
      conductor_A underground_line_conductor_3;     
      conductor_N underground_line_conductor_3;     
      spacing line_spacing_11;     
}       

object line_configuration {     
      name line_configuration_27;     
      conductor_A overhead_line_conductor_4;     
      conductor_B overhead_line_conductor_4;     
      conductor_C overhead_line_conductor_4;     
      conductor_N overhead_line_conductor_4;     
      spacing line_spacing_12;     
}       

object line_configuration {     
      name line_configuration_28;     
      conductor_B overhead_line_conductor_5;     
      conductor_N overhead_line_conductor_5;     
      spacing line_spacing_13;     
}       

object line_configuration {     
      name line_configuration_29;     
      conductor_B underground_line_conductor_3;     
      conductor_N underground_line_conductor_3;     
      spacing line_spacing_13;     
}       

object line_configuration {     
      name line_configuration_30;     
      conductor_C underground_line_conductor_3;     
      conductor_N underground_line_conductor_3;     
      spacing line_spacing_14;     
}       

object line_configuration {     
      name line_configuration_31;     
      conductor_A underground_line_conductor_3;     
      conductor_B underground_line_conductor_3;     
      conductor_C underground_line_conductor_3;     
      conductor_N underground_line_conductor_3;     
      spacing line_spacing_15;     
}       

object line_configuration {     
      name line_configuration_32;     
      conductor_A underground_line_conductor_6;     
      conductor_B underground_line_conductor_6;     
      conductor_C underground_line_conductor_6;     
      conductor_N underground_line_conductor_6;     
      spacing line_spacing_15;     
}       

object line_configuration {     
      name line_configuration_33;     
      conductor_C overhead_line_conductor_5;     
      conductor_N overhead_line_conductor_5;     
      spacing line_spacing_16;     
}       

object line_configuration {     
      name line_configuration_34;     
      conductor_A overhead_line_conductor_7;     
      conductor_B overhead_line_conductor_7;     
      conductor_C overhead_line_conductor_7;     
      conductor_N overhead_line_conductor_7;     
      spacing line_spacing_12;     
}       

object line_configuration {     
      name line_configuration_35;     
      conductor_A overhead_line_conductor_8;     
      conductor_B overhead_line_conductor_8;     
      conductor_C overhead_line_conductor_8;     
      conductor_N overhead_line_conductor_8;     
      spacing line_spacing_12;     
}       

object line_configuration {     
      name line_configuration_36;     
      conductor_A overhead_line_conductor_7;     
      conductor_B overhead_line_conductor_7;     
      conductor_C overhead_line_conductor_7;     
      conductor_N overhead_line_conductor_7;     
      spacing line_spacing_12;     
}       

object line_configuration {     
      name line_configuration_37;     
      conductor_A overhead_line_conductor_5;     
      conductor_B overhead_line_conductor_5;     
      conductor_C overhead_line_conductor_5;     
      conductor_N overhead_line_conductor_5;     
      spacing line_spacing_12;     
}       

object line_configuration {     
      name line_configuration_38;     
      conductor_A overhead_line_conductor_5;     
      conductor_N overhead_line_conductor_5;     
      spacing line_spacing_11;     
}       

object line_configuration {     
      name line_configuration_39;     
      conductor_A underground_line_conductor_3;     
      conductor_N underground_line_conductor_3;     
      spacing line_spacing_17;     
}       

object line_configuration {     
      name line_configuration_40;     
      conductor_A overhead_line_conductor_5;     
      conductor_B overhead_line_conductor_5;     
      conductor_N overhead_line_conductor_5;     
      spacing line_spacing_18;     
}       

object line_configuration {     
      name line_configuration_41;     
      conductor_B overhead_line_conductor_5;     
      conductor_N overhead_line_conductor_5;     
      spacing line_spacing_13;     
}       

object line_configuration {     
      name line_configuration_42;     
      conductor_B underground_line_conductor_3;     
      conductor_N underground_line_conductor_3;     
      spacing line_spacing_19;     
}       

object line_configuration {     
      name line_configuration_43;     
      conductor_B overhead_line_conductor_7;     
      conductor_C overhead_line_conductor_7;     
      conductor_N overhead_line_conductor_7;     
      spacing line_spacing_20;     
}       

object line_configuration {     
      name line_configuration_44;     
      conductor_C overhead_line_conductor_9;     
      conductor_N overhead_line_conductor_9;     
      spacing line_spacing_16;     
}       

object line_configuration {     
      name line_configuration_45;     
      conductor_C overhead_line_conductor_7;     
      conductor_N overhead_line_conductor_7;     
      spacing line_spacing_16;     
}       

object line_configuration {     
      name line_configuration_46;     
      conductor_C overhead_line_conductor_8;     
      conductor_N overhead_line_conductor_8;     
      spacing line_spacing_16;     
}       

object line_configuration {     
      name line_configuration_47;     
      conductor_C overhead_line_conductor_8;     
      conductor_N overhead_line_conductor_8;     
      spacing line_spacing_21;     
}       

object line_configuration {     
      name line_configuration_48;     
      conductor_C underground_line_conductor_2;     
      conductor_N underground_line_conductor_2;     
      spacing line_spacing_14;     
}       

object line_configuration {     
      name line_configuration_49;     
      conductor_A overhead_line_conductor_10;     
      conductor_B overhead_line_conductor_10;     
      conductor_C overhead_line_conductor_10;     
      conductor_N overhead_line_conductor_10;     
      spacing line_spacing_12;     
}       

object line_configuration {     
      name line_configuration_50;     
      conductor_A overhead_line_conductor_8;     
      conductor_N overhead_line_conductor_8;     
      spacing line_spacing_11;     
}       

object line_configuration {     
      name line_configuration_51;     
      conductor_A overhead_line_conductor_8;     
      conductor_B overhead_line_conductor_8;     
      conductor_C overhead_line_conductor_8;     
      conductor_N overhead_line_conductor_8;     
      spacing line_spacing_22;     
}       

object line_configuration {     
      name line_configuration_52;     
      conductor_B overhead_line_conductor_8;     
      conductor_N overhead_line_conductor_8;     
      spacing line_spacing_13;     
}       

object line_configuration {     
      name line_configuration_53;     
      conductor_A underground_line_conductor_3;     
      conductor_C underground_line_conductor_3;     
      conductor_N underground_line_conductor_3;     
      spacing line_spacing_23;     
}       

object line_configuration {     
      name line_configuration_54;     
      conductor_A underground_line_conductor_3;     
      conductor_C underground_line_conductor_3;     
      conductor_N underground_line_conductor_3;     
      spacing line_spacing_24;     
}       

object line_configuration {     
      name line_configuration_55;     
      conductor_A overhead_line_conductor_8;     
      conductor_C overhead_line_conductor_8;     
      conductor_N overhead_line_conductor_8;     
      spacing line_spacing_23;     
}       

object line_configuration {     
      name line_configuration_56;     
      conductor_A overhead_line_conductor_5;     
      conductor_C overhead_line_conductor_5;     
      conductor_N overhead_line_conductor_5;     
      spacing line_spacing_23;     
}       

object line_configuration {     
      name line_configuration_57;     
      conductor_A overhead_line_conductor_7;     
      conductor_N overhead_line_conductor_7;     
      spacing line_spacing_11;     
}       

object line_configuration {     
      name line_configuration_58;     
      conductor_C underground_line_conductor_2;     
      conductor_N underground_line_conductor_2;     
      spacing line_spacing_16;     
}       

object line_spacing {     
      name line_spacing_11;     
      distance_AN 84.0 in;    
}       

object line_spacing {     
      name line_spacing_12;     
      distance_AB 57.6 in;    
      distance_BC 57.6 in;    
      distance_AC 57.6 in;    
      distance_AN 84.0 in;    
      distance_BN 84.0 in;    
      distance_CN 84.0 in;    
}       

object line_spacing {     
      name line_spacing_13;     
      distance_BN 84.0 in;    
}       

object line_spacing {     
      name line_spacing_14;     
      distance_CN 0.0 in;    
}       

object line_spacing {     
      name line_spacing_15;     
      distance_AB 0.0 in;    
      distance_BC 0.0 in;    
      distance_AC 0.0 in;    
      distance_AN 0.0 in;    
      distance_BN 0.0 in;    
      distance_CN 0.0 in;    
}       

object line_spacing {     
      name line_spacing_16;     
      distance_CN 84.0 in;    
}       

object line_spacing {     
      name line_spacing_17;     
      distance_AN 0.0 in;    
}       

object line_spacing {     
      name line_spacing_18;     
      distance_AB 57.6 in;    
      distance_AN 84.0 in;    
      distance_BN 84.0 in;    
}       

object line_spacing {     
      name line_spacing_19;     
      distance_BN 0.0 in;    
}       

object line_spacing {     
      name line_spacing_20;     
      distance_BC 57.6 in;    
      distance_BN 84.0 in;    
      distance_CN 84.0 in;    
}       

object line_spacing {     
      name line_spacing_21;     
      distance_CN 51.6 in;    
}       

object line_spacing {     
      name line_spacing_22;     
      distance_AB 57.6 in;    
      distance_BC 57.6 in;    
      distance_AC 57.6 in;    
      distance_AN 51.6 in;    
      distance_BN 51.6 in;    
      distance_CN 51.6 in;    
}       

object line_spacing {     
      name line_spacing_23;     
      distance_AC 57.6 in;    
      distance_AN 84.0 in;    
      distance_CN 84.0 in;    
}       

object line_spacing {     
      name line_spacing_24;     
      distance_AC 0.0 in;    
      distance_AN 0.0 in;    
      distance_CN 0.0 in;    
}       

object overhead_line_conductor {     
      name overhead_line_conductor_4;     
      //name 4/0 ACSR;    
      rating.summer.continuous 334.0;     
      geometric_mean_radius 0.00814 ft;    
      resistance 0.56300;     
}       

object overhead_line_conductor {     
      name overhead_line_conductor_5;     
      //name 4 CU;    
      rating.summer.continuous 149.0;     
      geometric_mean_radius 0.00663 ft;    
      resistance 1.50000;     
}       

object overhead_line_conductor {     
      name overhead_line_conductor_7;     
      //name 2 ACSR;    
      rating.summer.continuous 180.0;     
      geometric_mean_radius 0.00418 ft;    
      resistance 1.62570;     
}       

object overhead_line_conductor {     
      name overhead_line_conductor_8;     
      //name 1/0 AAC;    
      rating.summer.continuous 230.0;     
      geometric_mean_radius 0.01203 ft;    
      resistance 0.95300;     
}       

object overhead_line_conductor {     
      name overhead_line_conductor_9;     
      //name 4 AAAC;    
      rating.summer.continuous 120.0;     
      geometric_mean_radius 0.00700 ft;    
      resistance 2.40970;     
}       

object overhead_line_conductor {     
      name overhead_line_conductor_10;     
      //name 2 AAAC;    
      rating.summer.continuous 197.0;     
      geometric_mean_radius 0.00883 ft;    
      resistance 1.51970;     
}       

object transformer_configuration {     
      name transformer_configuration_662;     
      connect_type SINGLE_PHASE_CENTER_TAPPED;     
      install_type PADMOUNT;     
      primary_voltage 14376.02 V;    
      secondary_voltage 120 V;    
      power_rating 25.0;     
      powerA_rating 25.0;     
      resistance 0.00600;     
      reactance 0.00400;     
      shunt_impedance 339.610+367.059j;     
}       

object transformer_configuration {     
      name transformer_configuration_663;     
      connect_type SINGLE_PHASE_CENTER_TAPPED;     
      install_type POLETOP;     
      primary_voltage 14376.02 V;    
      secondary_voltage 120 V;    
      power_rating 75.0;     
      powerA_rating 75.0;     
      resistance 0.00200;     
      reactance 0.00133;     
      shunt_impedance 443.910+469.610j;     
}       

object transformer_configuration {     
      name transformer_configuration_664;     
      connect_type SINGLE_PHASE_CENTER_TAPPED;     
      install_type POLETOP;     
      primary_voltage 14376.02 V;    
      secondary_voltage 120 V;    
      power_rating 25.0;     
      powerA_rating 25.0;     
      resistance 0.00600;     
      reactance 0.00400;     
      shunt_impedance 339.610+365.517j;     
}       

object transformer_configuration {     
      name transformer_configuration_665;     
      connect_type SINGLE_PHASE_CENTER_TAPPED;     
      install_type POLETOP;     
      primary_voltage 14376.02 V;    
      secondary_voltage 120 V;    
      power_rating 15.0;     
      powerA_rating 15.0;     
      resistance 0.01000;     
      reactance 0.00667;     
      shunt_impedance 318.750+281.070j;     
}       

object transformer_configuration {     
      name transformer_configuration_666;     
      connect_type SINGLE_PHASE_CENTER_TAPPED;     
      install_type POLETOP;     
      primary_voltage 14376.02 V;    
      secondary_voltage 120 V;    
      power_rating 37.5;     
      powerA_rating 37.5;     
      resistance 0.00400;     
      reactance 0.00267;     
      shunt_impedance 365.685+387.035j;     
}       

object transformer_configuration {     
      name transformer_configuration_667;     
      connect_type SINGLE_PHASE_CENTER_TAPPED;     
      install_type PADMOUNT;     
      primary_voltage 14376.02 V;    
      secondary_voltage 120 V;    
      power_rating 25.0;     
      powerA_rating 25.0;     
      resistance 0.00600;     
      reactance 0.00400;     
      shunt_impedance 339.610+319.912j;     
}       

object transformer_configuration {     
      name transformer_configuration_668;     
      connect_type SINGLE_PHASE_CENTER_TAPPED;     
      install_type PADMOUNT;     
      primary_voltage 14376.02 V;    
      secondary_voltage 120 V;    
      power_rating 10.0;     
      powerA_rating 10.0;     
      resistance 0.015;     
      reactance 0.01;     
      shunt_impedance 308.320+291.012j;     
}       

object transformer_configuration {     
      name transformer_configuration_669;     
      connect_type SINGLE_PHASE_CENTER_TAPPED;     
      install_type PADMOUNT;     
      primary_voltage 14376.02 V;    
      secondary_voltage 120 V;    
      power_rating 15.0;     
      powerA_rating 15.0;     
      resistance 0.01000;     
      reactance 0.00667;     
      shunt_impedance 318.750+269.156j;     
}       

object transformer_configuration {     
      name transformer_configuration_670;     
      connect_type SINGLE_PHASE_CENTER_TAPPED;     
      install_type POLETOP;     
      primary_voltage 14376.02 V;    
      secondary_voltage 120 V;    
      power_rating 100.0;     
      powerA_rating 100.0;     
      resistance 0.00150;     
      reactance 0.00100;     
      shunt_impedance 496.060+550.637j;     
}       

object transformer_configuration {     
      name transformer_configuration_671;     
      connect_type SINGLE_PHASE_CENTER_TAPPED;     
      install_type PADMOUNT;     
      primary_voltage 14376.02 V;    
      secondary_voltage 120 V;    
      power_rating 50.0;     
      powerA_rating 50.0;     
      resistance 0.00300;     
      reactance 0.00200;     
      shunt_impedance 391.760+398.618j;     
}       

object transformer_configuration {     
      name transformer_configuration_672;     
      connect_type SINGLE_PHASE_CENTER_TAPPED;     
      install_type POLETOP;     
      primary_voltage 14376.02 V;    
      secondary_voltage 120 V;    
      power_rating 50.0;     
      powerA_rating 50.0;     
      resistance 0.00300;     
      reactance 0.00200;     
      shunt_impedance 391.760+431.077j;     
}       

object transformer_configuration {     
      name transformer_configuration_673;     
      connect_type SINGLE_PHASE_CENTER_TAPPED;     
      install_type PADMOUNT;     
      primary_voltage 14376.02 V;    
      secondary_voltage 120 V;    
      power_rating 25.0;     
      powerB_rating 25.0;     
      resistance 0.00600;     
      reactance 0.00400;     
      shunt_impedance 339.610+390.925j;     
}       

object transformer_configuration {     
      name transformer_configuration_674;     
      connect_type SINGLE_PHASE_CENTER_TAPPED;     
      install_type PADMOUNT;     
      primary_voltage 14376.02 V;    
      secondary_voltage 120 V;    
      power_rating 25.0;     
      powerC_rating 25.0;     
      resistance 0.00600;     
      reactance 0.00400;     
      shunt_impedance 339.610+300.988j;     
}       

object transformer_configuration {     
      name transformer_configuration_675;     
      connect_type SINGLE_PHASE_CENTER_TAPPED;     
      install_type POLETOP;     
      primary_voltage 14376.02 V;    
      secondary_voltage 120 V;    
      power_rating 15.0;     
      powerC_rating 15.0;     
      resistance 0.01000;     
      reactance 0.00667;     
      shunt_impedance 318.750+339.246j;     
}       

object transformer_configuration {     
      name transformer_configuration_676;     
      connect_type SINGLE_PHASE_CENTER_TAPPED;     
      install_type POLETOP;     
      primary_voltage 14376.02 V;    
      secondary_voltage 120 V;    
      power_rating 87.5;     
      powerC_rating 87.5;     
      resistance 0.00171;     
      reactance 0.00114;     
      shunt_impedance 469.985+469.385j;     
}       

object transformer_configuration {     
      name transformer_configuration_677;     
      connect_type SINGLE_PHASE_CENTER_TAPPED;     
      install_type PADMOUNT;     
      primary_voltage 14376.02 V;    
      secondary_voltage 120 V;    
      power_rating 25.0;     
      powerC_rating 25.0;     
      resistance 0.00600;     
      reactance 0.00400;     
      shunt_impedance 339.610+370.659j;     
}       

object transformer_configuration {     
      name transformer_configuration_678;     
      connect_type SINGLE_PHASE_CENTER_TAPPED;     
      install_type POLETOP;     
      primary_voltage 14376.02 V;    
      secondary_voltage 120 V;    
      power_rating 25.0;     
      powerC_rating 25.0;     
      resistance 0.00600;     
      reactance 0.00400;     
      shunt_impedance 339.610+377.228j;     
}       

object transformer_configuration {     
      name transformer_configuration_679;     
      connect_type SINGLE_PHASE_CENTER_TAPPED;     
      install_type POLETOP;     
      primary_voltage 14376.02 V;    
      secondary_voltage 120 V;    
      power_rating 50.0;     
      powerC_rating 50.0;     
      resistance 0.00300;     
      reactance 0.00200;     
      shunt_impedance 391.760+423.903j;     
}       

object transformer_configuration {     
      name transformer_configuration_705;     
      connect_type WYE_WYE;     
      install_type PADMOUNT;     
      primary_voltage 24900.000 V;    
      secondary_voltage 480 V;    
      power_rating 25.0;     
      powerA_rating 25.0;     
      resistance 0.00400;     
      reactance 0.02000;     
      shunt_impedance 339.610+311.843j;     
}       

object transformer_configuration {     
      name transformer_configuration_706;     
      connect_type WYE_WYE;     
      install_type PADMOUNT;     
      primary_voltage 24900.000 V;    
      secondary_voltage 480 V;    
      power_rating 25.0;     
      powerB_rating 25.0;     
      resistance 0.00400;     
      reactance 0.02000;     
      shunt_impedance 339.610+335.314j;     
}       

object transformer_configuration {     
      name transformer_configuration_707;     
      connect_type WYE_WYE;     
      install_type POLETOP;     
      primary_voltage 24900.000 V;    
      secondary_voltage 480 V;    
      power_rating 25.0;     
      powerB_rating 25.0;     
      resistance 0.00400;     
      reactance 0.02000;     
      shunt_impedance 339.610+348.581j;     
}       

object transformer_configuration {     
      name transformer_configuration_708;     
      connect_type WYE_WYE;     
      install_type POLETOP;     
      primary_voltage 24900.000 V;    
      secondary_voltage 480 V;    
      power_rating 50.0;     
      powerC_rating 50.0;     
      resistance 0.00200;     
      reactance 0.01000;     
      shunt_impedance 391.760+515.498j;     
}       

object transformer_configuration {     
      name transformer_configuration_709;     
      connect_type WYE_WYE;     
      install_type POLETOP;     
      primary_voltage 24900.000 V;    
      secondary_voltage 480 V;    
      power_rating 25.0;     
      powerA_rating 25.0;     
      resistance 0.00400;     
      reactance 0.02000;     
      shunt_impedance 339.610+381.267j;     
}       

object transformer_configuration {     
      name transformer_configuration_710;     
      connect_type WYE_WYE;     
      install_type PADMOUNT;     
      primary_voltage 24900.000 V;    
      secondary_voltage 480 V;    
      power_rating 225.0;     
      powerA_rating 75.0;     
      powerB_rating 75.0;     
      powerC_rating 75.0;     
      resistance 0.00044;     
      reactance 0.00222;     
      shunt_impedance 756.810+932.438j;     
}       

object transformer_configuration {     
      name transformer_configuration_711;     
      connect_type WYE_WYE;     
      install_type PADMOUNT;     
      primary_voltage 24900.000 V;    
      secondary_voltage 480 V;    
      power_rating 5.0;     
      powerA_rating 0.0;     
      powerB_rating 0.0;     
      powerC_rating 5.0;     
      resistance 0.01;     
      reactance 0.05;     
      shunt_impedance 297.890+310.237j;     
}       

object transformer_configuration {     
      name transformer_configuration_712;     
      connect_type WYE_WYE;     
      install_type PADMOUNT;     
      primary_voltage 24900.000 V;    
      secondary_voltage 480 V;    
      power_rating 25.0;     
      powerA_rating 0.0;     
      powerB_rating 0.0;     
      powerC_rating 25.0;     
      resistance 0.00400;     
      reactance 0.02000;     
      shunt_impedance 339.610+346.804j;     
}       

object transformer_configuration {     
      name transformer_configuration_713;     
      connect_type WYE_WYE;     
      install_type PADMOUNT;     
      primary_voltage 24900.000 V;    
      secondary_voltage 480 V;    
      power_rating 25.0;     
      powerC_rating 25.0;     
      resistance 0.00400;     
      reactance 0.02000;     
      shunt_impedance 339.610+360.434j;     
}       

object transformer_configuration {     
      name transformer_configuration_714;     
      connect_type WYE_WYE;     
      install_type PADMOUNT;     
      primary_voltage 24900.000 V;    
      secondary_voltage 480 V;    
      power_rating 175.0;     
      powerC_rating 175.0;     
      resistance 0.00057;     
      reactance 0.00286;     
      shunt_impedance 652.510+618.072j;     
}       

object transformer_configuration {     
      name transformer_configuration_715;     
      connect_type WYE_WYE;     
      install_type PADMOUNT;     
      primary_voltage 24900.000 V;    
      secondary_voltage 480 V;    
      power_rating 75.0;     
      powerC_rating 75.0;     
      resistance 0.00133;     
      reactance 0.00667;     
      shunt_impedance 443.910+499.026j;     
}       

object transformer_configuration {     
      name transformer_configuration_716;     
      connect_type WYE_WYE;     
      install_type POLETOP;     
      primary_voltage 24900.000 V;    
      secondary_voltage 480 V;    
      power_rating 37.5;     
      powerC_rating 37.5;     
      resistance 0.00267;     
      reactance 0.01333;     
      shunt_impedance 365.685+359.921j;     
}       

object transformer_configuration {     
      name transformer_configuration_717;     
      connect_type WYE_WYE;     
      install_type PADMOUNT;     
      primary_voltage 24900.000 V;    
      secondary_voltage 480 V;    
      power_rating 100.0;     
      powerC_rating 100.0;     
      resistance 0.00100;     
      reactance 0.00500;     
      shunt_impedance 496.060+427.921j;     
}       

object transformer_configuration {     
      name transformer_configuration_718;     
      connect_type WYE_WYE;     
      install_type PADMOUNT;     
      primary_voltage 24900.000 V;    
      secondary_voltage 480 V;    
      power_rating 85.0;     
      powerA_rating 10.0;     
      powerB_rating 25.0;     
      powerC_rating 50.0;     
      resistance 0.00118;     
      reactance 0.00588;     
      shunt_impedance 464.770+505.244j;     
}       

object transformer_configuration {     
      name transformer_configuration_719;     
      connect_type WYE_WYE;     
      install_type PADMOUNT;     
      primary_voltage 24900.000 V;    
      secondary_voltage 480 V;    
      power_rating 150.0;     
      powerA_rating 50.0;     
      powerB_rating 50.0;     
      powerC_rating 50.0;     
      resistance 0.00067;     
      reactance 0.00333;     
      shunt_impedance 600.360+506.192j;     
}       

object transformer_configuration {     
      name transformer_configuration_720;     
      connect_type WYE_WYE;     
      install_type PADMOUNT;     
      primary_voltage 24900.000 V;    
      secondary_voltage 480 V;    
      power_rating 15.0;     
      powerA_rating 0.0;     
      powerB_rating 0.0;     
      powerC_rating 15.0;     
      resistance 0.00667;     
      reactance 0.03333;     
      shunt_impedance 318.750+259.964j;     
}       

object transformer_configuration {     
      name transformer_configuration_721;     
      connect_type WYE_WYE;     
      install_type PADMOUNT;     
      primary_voltage 24900.000 V;    
      secondary_voltage 480 V;    
      power_rating 10.0;     
      powerC_rating 10.0;     
      resistance 0.01;     
      reactance 0.05;     
      shunt_impedance 308.320+317.212j;     
}       

object transformer_configuration {     
      name transformer_configuration_722;     
      connect_type WYE_WYE;     
      install_type PADMOUNT;     
      primary_voltage 24900.000 V;    
      secondary_voltage 480 V;    
      power_rating 525.0;     
      powerA_rating 175.0;     
      powerB_rating 175.0;     
      powerC_rating 175.0;     
      resistance 0.00019;     
      reactance 0.00095;     
      shunt_impedance 1382.610+1251.136j;     
}       

object transformer_configuration {     
      name transformer_configuration_723;     
      connect_type WYE_WYE;     