//Input feeder information for Taxonomy Feeders with different cases.
//Started on 10/21/09. This version created 25-Feb-2019 18:33:45.
// This version was created to perform FY11 Department of Energy
// analysis on the benefits of the SGIG grant projects.

clock {
     timezone CST+6CDT;
     starttime '2009-01-01 00:00:00';
     stoptime '2010-01-02 00:00:00';
}

#include "appliance_schedules.glm";
#include "water_and_setpoint_schedule_v5.glm";
#include "commercial_schedules.glm";
#include "daily_elasticity_schedules.glm";
//#define stylesheet=http://gridlab-d.svn.sourceforge.net/viewvc/gridlab-d/trunk/core/gridlabd-2_0
#set minimum_timestep=60;
#set profiler=1;
#set relax_naming_rules=1;

module tape;
module climate;
module residential {
     implicit_enduses NONE;
};
module powerflow {
     solver_method NR;
     NR_iteration_limit 50;
};

class player {
     double value;
};

module market;

class auction {
     double my_avg;
     double my_std;
};

object player {
     name CPP_days_R2;
     file CPP_days_R2.player;
};

object auction {
     name Market_1;
     period 900;
     special_mode BUYERS_ONLY;
     unit kW;
     my_avg 0.096572;
     my_std 0.033614;
     object player {
          file R2_1247_1_t0_TOU.player;
          loop 10;
          property current_market.clearing_price;
     };
}

object climate {
     name "IL-Chicago";
     tmyfile "IL-Chicago.tmy2";
     interpolate QUADRATIC;
};

//Configurations

object regulator_configuration {     
      name regulator_configuration_1827;     
      name feeder_reg_cfg;     
      Control OUTPUT_VOLTAGE;     
      band_center 7500.0;     
      band_width 120;     
      connect_type WYE_WYE;     
      time_delay 30;     
      raise_taps 16;     
      lower_taps 16;     
      regulation 0.10;     
      tap_pos_A 0;     
      tap_pos_B 0;     
      tap_pos_C 0;     
}       

object line_configuration {     
      name line_configuration_31;     
      conductor_A underground_line_conductor_2;     
      conductor_B underground_line_conductor_2;     
      conductor_C underground_line_conductor_2;     
      conductor_N underground_line_conductor_2;     
      spacing line_spacing_21;     
}       

object line_configuration {     
      name line_configuration_32;     
      conductor_B underground_line_conductor_3;     
      conductor_N underground_line_conductor_3;     
      spacing line_spacing_22;     
}       

object line_configuration {     
      name line_configuration_33;     
      conductor_A overhead_line_conductor_4;     
      conductor_B overhead_line_conductor_4;     
      conductor_C overhead_line_conductor_4;     
      conductor_N overhead_line_conductor_4;     
      spacing line_spacing_23;     
}       

object line_configuration {     
      name line_configuration_34;     
      conductor_C underground_line_conductor_3;     
      conductor_N underground_line_conductor_3;     
      spacing line_spacing_24;     
}       

object line_configuration {     
      name line_configuration_35;     
      conductor_A underground_line_conductor_3;     
      conductor_N underground_line_conductor_3;     
      spacing line_spacing_25;     
}       

object line_configuration {     
      name line_configuration_36;     
      conductor_A underground_line_conductor_3;     
      conductor_B underground_line_conductor_3;     
      conductor_C underground_line_conductor_3;     
      conductor_N underground_line_conductor_3;     
      spacing line_spacing_21;     
}       

object line_configuration {     
      name line_configuration_37;     
      conductor_B overhead_line_conductor_5;     
      conductor_N overhead_line_conductor_5;     
      spacing line_spacing_26;     
}       

object line_configuration {     
      name line_configuration_38;     
      conductor_A overhead_line_conductor_6;     
      conductor_B overhead_line_conductor_6;     
      conductor_C overhead_line_conductor_6;     
      conductor_N overhead_line_conductor_6;     
      spacing line_spacing_23;     
}       

object line_configuration {     
      name line_configuration_39;     
      conductor_A overhead_line_conductor_6;     
      conductor_N overhead_line_conductor_6;     
      spacing line_spacing_27;     
}       

object line_configuration {     
      name line_configuration_40;     
      conductor_A underground_line_conductor_7;     
      conductor_B underground_line_conductor_7;     
      conductor_C underground_line_conductor_7;     
      conductor_N underground_line_conductor_7;     
      spacing line_spacing_21;     
}       

object line_configuration {     
      name line_configuration_41;     
      conductor_B overhead_line_conductor_6;     
      conductor_N overhead_line_conductor_6;     
      spacing line_spacing_26;     
}       

object line_configuration {     
      name line_configuration_42;     
      conductor_A underground_line_conductor_8;     
      conductor_B underground_line_conductor_8;     
      conductor_C underground_line_conductor_8;     
      conductor_N underground_line_conductor_8;     
      spacing line_spacing_23;     
}       

object line_configuration {     
      name line_configuration_43;     
      conductor_A overhead_line_conductor_5;     
      conductor_B overhead_line_conductor_5;     
      conductor_C overhead_line_conductor_5;     
      conductor_N overhead_line_conductor_5;     
      spacing line_spacing_23;     
}       

object line_configuration {     
      name line_configuration_44;     
      conductor_A overhead_line_conductor_4;     
      conductor_N overhead_line_conductor_4;     
      spacing line_spacing_27;     
}       

object line_configuration {     
      name line_configuration_45;     
      conductor_A underground_line_conductor_9;     
      conductor_B underground_line_conductor_9;     
      conductor_C underground_line_conductor_9;     
      conductor_N underground_line_conductor_9;     
      spacing line_spacing_23;     
}       

object line_configuration {     
      name line_configuration_46;     
      conductor_A underground_line_conductor_9;     
      conductor_B underground_line_conductor_9;     
      conductor_C underground_line_conductor_9;     
      conductor_N underground_line_conductor_9;     
      spacing line_spacing_21;     
}       

object line_configuration {     
      name line_configuration_47;     
      conductor_A overhead_line_conductor_10;     
      conductor_B overhead_line_conductor_10;     
      conductor_C overhead_line_conductor_10;     
      conductor_N overhead_line_conductor_10;     
      spacing line_spacing_23;     
}       

object line_configuration {     
      name line_configuration_48;     
      conductor_A overhead_line_conductor_5;     
      conductor_N overhead_line_conductor_5;     
      spacing line_spacing_27;     
}       

object line_configuration {     
      name line_configuration_49;     
      conductor_A overhead_line_conductor_11;     
      conductor_B overhead_line_conductor_11;     
      conductor_C overhead_line_conductor_11;     
      conductor_N overhead_line_conductor_11;     
      spacing line_spacing_23;     
}       

object line_configuration {     
      name line_configuration_50;     
      conductor_B overhead_line_conductor_12;     
      conductor_N overhead_line_conductor_12;     
      spacing line_spacing_26;     
}       

object line_configuration {     
      name line_configuration_51;     
      conductor_C overhead_line_conductor_12;     
      conductor_N overhead_line_conductor_12;     
      spacing line_spacing_28;     
}       

object line_configuration {     
      name line_configuration_52;     
      conductor_B overhead_line_conductor_13;     
      conductor_N overhead_line_conductor_13;     
      spacing line_spacing_26;     
}       

object line_configuration {     
      name line_configuration_53;     
      conductor_A overhead_line_conductor_12;     
      conductor_B overhead_line_conductor_12;     
      conductor_C overhead_line_conductor_12;     
      conductor_N overhead_line_conductor_12;     
      spacing line_spacing_23;     
}       

object line_configuration {     
      name line_configuration_54;     
      conductor_A overhead_line_conductor_6;     
      conductor_B overhead_line_conductor_6;     
      conductor_C overhead_line_conductor_6;     
      conductor_N overhead_line_conductor_6;     
      spacing line_spacing_23;     
}       

object line_configuration {     
      name line_configuration_55;     
      conductor_B overhead_line_conductor_10;     
      conductor_N overhead_line_conductor_10;     
      spacing line_spacing_26;     
}       

object line_configuration {     
      name line_configuration_56;     
      conductor_A overhead_line_conductor_14;     
      conductor_B overhead_line_conductor_14;     
      conductor_C overhead_line_conductor_14;     
      conductor_N overhead_line_conductor_14;     
      spacing line_spacing_23;     
}       

object line_configuration {     
      name line_configuration_57;     
      conductor_A overhead_line_conductor_5;     
      conductor_B overhead_line_conductor_5;     
      conductor_N overhead_line_conductor_5;     
      spacing line_spacing_29;     
}       

object line_configuration {     
      name line_configuration_58;     
      conductor_A overhead_line_conductor_15;     
      conductor_B overhead_line_conductor_15;     
      conductor_C overhead_line_conductor_15;     
      conductor_N overhead_line_conductor_15;     
      spacing line_spacing_23;     
}       

object line_configuration {     
      name line_configuration_59;     
      conductor_A underground_line_conductor_8;     
      conductor_B underground_line_conductor_8;     
      conductor_C underground_line_conductor_8;     
      conductor_N underground_line_conductor_8;     
      spacing line_spacing_21;     
}       

object line_configuration {     
      name line_configuration_60;     
      conductor_A underground_line_conductor_9;     
      conductor_N underground_line_conductor_9;     
      spacing line_spacing_25;     
}       

object line_configuration {     
      name line_configuration_61;     
      conductor_A overhead_line_conductor_13;     
      conductor_N overhead_line_conductor_13;     
      spacing line_spacing_27;     
}       

object line_configuration {     
      name line_configuration_62;     
      conductor_A overhead_line_conductor_13;     
      conductor_B overhead_line_conductor_13;     
      conductor_C overhead_line_conductor_13;     
      conductor_N overhead_line_conductor_13;     
      spacing line_spacing_23;     
}       

object line_configuration {     
      name line_configuration_63;     
      conductor_C overhead_line_conductor_16;     
      conductor_N overhead_line_conductor_16;     
      spacing line_spacing_28;     
}       

object line_configuration {     
      name line_configuration_64;     
      conductor_C overhead_line_conductor_6;     
      conductor_N overhead_line_conductor_6;     
      spacing line_spacing_28;     
}       

object line_configuration {     
      name line_configuration_65;     
      conductor_A overhead_line_conductor_15;     
      conductor_B overhead_line_conductor_15;     
      conductor_C overhead_line_conductor_15;     
      conductor_N overhead_line_conductor_15;     
      spacing line_spacing_23;     
}       

object line_configuration {     
      name line_configuration_66;     
      conductor_A overhead_line_conductor_6;     
      conductor_B overhead_line_conductor_6;     
      conductor_C overhead_line_conductor_6;     
      conductor_N overhead_line_conductor_6;     
      spacing line_spacing_23;     
}       

object line_configuration {     
      name line_configuration_67;     
      conductor_A overhead_line_conductor_17;     
      conductor_B overhead_line_conductor_17;     
      conductor_C overhead_line_conductor_17;     
      conductor_N overhead_line_conductor_17;     
      spacing line_spacing_23;     
}       

object line_configuration {     
      name line_configuration_68;     
      conductor_B overhead_line_conductor_5;     
      conductor_C overhead_line_conductor_5;     
      conductor_N overhead_line_conductor_5;     
      spacing line_spacing_30;     
}       

object line_configuration {     
      name line_configuration_69;     
      conductor_A overhead_line_conductor_14;     
      conductor_B overhead_line_conductor_14;     
      conductor_N overhead_line_conductor_14;     
      spacing line_spacing_29;     
}       

object line_configuration {     
      name line_configuration_70;     
      conductor_A overhead_line_conductor_5;     
      conductor_B overhead_line_conductor_5;     
      conductor_C overhead_line_conductor_5;     
      conductor_N overhead_line_conductor_5;     
      spacing line_spacing_23;     
}       

object line_configuration {     
      name line_configuration_71;     
      conductor_A overhead_line_conductor_5;     
      conductor_B overhead_line_conductor_5;     
      conductor_C overhead_line_conductor_5;     
      conductor_N overhead_line_conductor_5;     
      spacing line_spacing_23;     
}       

object line_spacing {     
      name line_spacing_21;     
      distance_AB 3.0 in;    
      distance_BC 3.0 in;    
      distance_AC 3.0 in;    
      distance_AN 2.0 in;    
      distance_BN 2.0 in;    
      distance_CN 2.0 in;    
}       

object line_spacing {     
      name line_spacing_22;     
      distance_BN 2.0 in;    
}       

object line_spacing {     
      name line_spacing_23;     
      distance_AB 48.0 in;    
      distance_BC 48.0 in;    
      distance_AC 48.0 in;    
      distance_AN 36.0 in;    
      distance_BN 36.0 in;    
      distance_CN 36.0 in;    
}       

object line_spacing {     
      name line_spacing_24;     
      distance_CN 2.0 in;    
}       

object line_spacing {     
      name line_spacing_25;     
      distance_AN 2.0 in;    
}       

object line_spacing {     
      name line_spacing_26;     
      distance_BN 36.0 in;    
}       

object line_spacing {     
      name line_spacing_27;     
      distance_AN 36.0 in;    
}       

object line_spacing {     
      name line_spacing_28;     
      distance_CN 36.0 in;    
}       

object line_spacing {     
      name line_spacing_29;     
      distance_AB 48.0 in;    
      distance_AN 36.0 in;    
      distance_BN 36.0 in;    
}       

object line_spacing {     
      name line_spacing_30;     
      distance_BC 48.0 in;    
      distance_BN 36.0 in;    
      distance_CN 36.0 in;    
}       

object overhead_line_conductor {     
      name overhead_line_conductor_4;     
      //name 336.4 AAC;    
      rating.summer.continuous 443.0;     
      geometric_mean_radius 0.02270 ft;    
      resistance 0.05230;     
}       

object overhead_line_conductor {     
      name overhead_line_conductor_5;     
      //name 4 AAAC;    
      rating.summer.continuous 120.0;     
      geometric_mean_radius 0.00700 ft;    
      resistance 2.40970;     
}       

object overhead_line_conductor {     
      name overhead_line_conductor_6;     
      //name 4 CU;    
      rating.summer.continuous 149.0;     
      geometric_mean_radius 0.00663 ft;    
      resistance 1.50000;     
}       

object overhead_line_conductor {     
      name overhead_line_conductor_10;     
      //name 556.5 AAC;    
      rating.summer.continuous 605.0;     
      geometric_mean_radius 0.02920 ft;    
      resistance 0.03180;     
}       

object overhead_line_conductor {     
      name overhead_line_conductor_11;     
      //name 266.8 AAC;    
      rating.summer.continuous 388.0;     
      geometric_mean_radius 0.02020 ft;    
      resistance 0.06570;     
}       

object overhead_line_conductor {     
      name overhead_line_conductor_12;     
      //name 4 ACSR;    
      rating.summer.continuous 123.0;     
      geometric_mean_radius 0.00437 ft;    
      resistance 2.53069;     
}       

object overhead_line_conductor {     
      name overhead_line_conductor_13;     
      //name 4 AAC;    
      rating.summer.continuous 120.0;     
      geometric_mean_radius 0.00756 ft;    
      resistance 0.42000;     
}       

object overhead_line_conductor {     
      name overhead_line_conductor_14;     
      //name 123.3 AAAC;    
      rating.summer.continuous 256.0;     
      geometric_mean_radius 0.01200 ft;    
      resistance 0.16600;     
}       

object overhead_line_conductor {     
      name overhead_line_conductor_15;     
      //name 2 CU;    
      rating.summer.continuous 204.0;     
      geometric_mean_radius 0.00836 ft;    
      resistance 0.94500;     
}       

object overhead_line_conductor {     
      name overhead_line_conductor_16;     
      //name 6 CU;    
      rating.summer.continuous 112.0;     
      geometric_mean_radius 0.00526 ft;    
      resistance 2.39000;     
}       

object overhead_line_conductor {     
      name overhead_line_conductor_17;     
      //name 1/0 ACSR;    
      rating.summer.continuous 230.0;     
      geometric_mean_radius 0.00446 ft;    
      resistance 1.04100;     
}       

object overhead_line_conductor {     
      name overhead_line_conductor_18;     
      //name 2 AAC;    
      rating.summer.continuous 164.0;     
      geometric_mean_radius 0.00883 ft;    
      resistance 1.51970;     
}       

object overhead_line_conductor {     
      name overhead_line_conductor_19;     
      //name 2 AAAC;    
      rating.summer.continuous 197.0;     
      geometric_mean_radius 0.00883 ft;    
      resistance 1.51970;     
}       

object overhead_line_conductor {     
      name overhead_line_conductor_20;     
      //name 6 AAC;    
      rating.summer.continuous 90.0;     
      geometric_mean_radius 0.00599 ft;    
      resistance 0.67000;     
}       

object transformer_configuration {     
      name transformer_configuration_1087;     
      connect_type SINGLE_PHASE_CENTER_TAPPED;     
      install_type POLETOP;     
      primary_voltage 7200 V;    
      secondary_voltage 120 V;    
      power_rating 5;     
      powerA_rating 5;     
      resistance 0.015;     
      reactance 0.01;     
      shunt_impedance 297.890+331.957j;     
}       

object transformer_configuration {     
      name transformer_configuration_1088;     
      connect_type SINGLE_PHASE_CENTER_TAPPED;     
      install_type PADMOUNT;     
      primary_voltage 7200 V;    
      secondary_voltage 120 V;    
      power_rating 25.0;     
      powerA_rating 25.0;     
      resistance 0.00600;     
      reactance 0.00400;     
      shunt_impedance 339.610+308.545j;     
}       

object transformer_configuration {     
      name transformer_configuration_1089;     
      connect_type SINGLE_PHASE_CENTER_TAPPED;     
      install_type PADMOUNT;     
      primary_voltage 7200 V;    
      secondary_voltage 120 V;    
      power_rating 100.0;     
      powerA_rating 100.0;     
      resistance 0.00150;     
      reactance 0.00100;     
      shunt_impedance 496.060+504.979j;     
}       

object transformer_configuration {     
      name transformer_configuration_1090;     
      connect_type SINGLE_PHASE_CENTER_TAPPED;     
      install_type PADMOUNT;     
      primary_voltage 7200 V;    
      secondary_voltage 120 V;    
      power_rating 10.0;     
      powerA_rating 10.0;     
      resistance 0.015;     
      reactance 0.01;     
      shunt_impedance 308.320+278.001j;     
}       

object transformer_configuration {     
      name transformer_configuration_1091;     
      connect_type SINGLE_PHASE_CENTER_TAPPED;     
      install_type PADMOUNT;     
      primary_voltage 7200 V;    
      secondary_voltage 120 V;    
      power_rating 50.0;     
      powerA_rating 50.0;     
      resistance 0.00300;     
      reactance 0.00200;     
      shunt_impedance 391.760+406.836j;     
}       

object transformer_configuration {     
      name transformer_configuration_1092;     
      connect_type SINGLE_PHASE_CENTER_TAPPED;     
      install_type PADMOUNT;     
      primary_voltage 7200 V;    
      secondary_voltage 120 V;    
      power_rating 5;     
      powerA_rating 5;     
      resistance 0.015;     
      reactance 0.01;     
      shunt_impedance 297.890+307.592j;     
}       

object transformer_configuration {     
      name transformer_configuration_1093;     
      connect_type SINGLE_PHASE_CENTER_TAPPED;     
      install_type PADMOUNT;     
      primary_voltage 7200 V;    
      secondary_voltage 120 V;    
      power_rating 75.0;     
      powerA_rating 75.0;     
      resistance 0.00200;     
      reactance 0.00133;     
      shunt_impedance 443.910+501.455j;     
}       

object transformer_configuration {     
      name transformer_configuration_1094;     
      connect_type SINGLE_PHASE_CENTER_TAPPED;     
      install_type POLETOP;     
      primary_voltage 7200 V;    
      secondary_voltage 120 V;    
      power_rating 50.0;     
      powerA_rating 50.0;     
      resistance 0.00300;     
      reactance 0.00200;     
      shunt_impedance 391.760+434.823j;     
}       

object transformer_configuration {     
      name transformer_configuration_1095;     
      connect_type SINGLE_PHASE_CENTER_TAPPED;     
      install_type POLETOP;     
      primary_voltage 7200 V;    
      secondary_voltage 120 V;    
      power_rating 25.0;     
      powerA_rating 25.0;     
      resistance 0.00600;     
      reactance 0.00400;     
      shunt_impedance 339.610+361.794j;     
}       

object transformer_configuration {     
      name transformer_configuration_1096;     
      connect_type SINGLE_PHASE_CENTER_TAPPED;     
      install_type PADMOUNT;     
      primary_voltage 7200 V;    
      secondary_voltage 120 V;    
      power_rating 25.0;     
      powerB_rating 25.0;     
      resistance 0.00600;     
      reactance 0.00400;     
      shunt_impedance 339.610+322.457j;     
}       

object transformer_configuration {     
      name transformer_configuration_1097;     
      connect_type SINGLE_PHASE_CENTER_TAPPED;     
      install_type PADMOUNT;     
      primary_voltage 7200 V;    
      secondary_voltage 120 V;    
      power_rating 50.0;     
      powerB_rating 50.0;     
      resistance 0.00300;     
      reactance 0.00200;     
      shunt_impedance 391.760+373.112j;     
}       

object transformer_configuration {     
      name transformer_configuration_1098;     
      connect_type SINGLE_PHASE_CENTER_TAPPED;     
      install_type POLETOP;     
      primary_voltage 7200 V;    
      secondary_voltage 120 V;    
      power_rating 5;     
      powerB_rating 5;     
      resistance 0.015;     
      reactance 0.01;     
      shunt_impedance 297.890+236.776j;     
}       

object transformer_configuration {     
      name transformer_configuration_1099;     
      connect_type SINGLE_PHASE_CENTER_TAPPED;     
      install_type PADMOUNT;     
      primary_voltage 7200 V;    
      secondary_voltage 120 V;    
      power_rating 10.0;     
      powerB_rating 10.0;     
      resistance 0.015;     
      reactance 0.01;     
      shunt_impedance 308.320+294.498j;     
}       

object transformer_configuration {     
      name transformer_configuration_1100;     
      connect_type SINGLE_PHASE_CENTER_TAPPED;     
      install_type PADMOUNT;     
      primary_voltage 7200 V;    
      secondary_voltage 120 V;    
      power_rating 5;     
      powerB_rating 5;     
      resistance 0.015;     
      reactance 0.01;     
      shunt_impedance 297.890+251.681j;     
}       

object transformer_configuration {     
      name transformer_configuration_1101;     
      connect_type SINGLE_PHASE_CENTER_TAPPED;     
      install_type PADMOUNT;     
      primary_voltage 7200 V;    
      secondary_voltage 120 V;    
      power_rating 15.0;     
      powerB_rating 15.0;     
      resistance 0.01000;     
      reactance 0.00667;     
      shunt_impedance 318.750+348.388j;     
}       

object transformer_configuration {     
      name transformer_configuration_1102;     
      connect_type SINGLE_PHASE_CENTER_TAPPED;     
      install_type POLETOP;     
      primary_voltage 7200 V;    
      secondary_voltage 120 V;    
      power_rating 25.0;     
      powerB_rating 25.0;     
      resistance 0.00600;     
      reactance 0.00400;     
      shunt_impedance 339.610+370.241j;     
}       

object transformer_configuration {     
      name transformer_configuration_1103;     
      connect_type SINGLE_PHASE_CENTER_TAPPED;     
      install_type POLETOP;     
      primary_voltage 7200 V;    
      secondary_voltage 120 V;    
      power_rating 50.0;     
      powerB_rating 50.0;     
      resistance 0.00300;     
      reactance 0.00200;     
      shunt_impedance 391.760+397.178j;     
}       

object transformer_configuration {     
      name transformer_configuration_1104;     
      connect_type SINGLE_PHASE_CENTER_TAPPED;     
      install_type POLETOP;     
      primary_voltage 7200 V;    
      secondary_voltage 120 V;    
      power_rating 75.0;     
      powerB_rating 75.0;     
      resistance 0.00200;     
      reactance 0.00133;     
      shunt_impedance 443.910+427.112j;     
}       

object transformer_configuration {     
      name transformer_configuration_1105;     
      connect_type SINGLE_PHASE_CENTER_TAPPED;     
      install_type POLETOP;     
      primary_voltage 7200 V;    
      secondary_voltage 120 V;    
      power_rating 37.5;     
      powerB_rating 37.5;     
      resistance 0.00400;     
      reactance 0.00267;     
      shunt_impedance 365.685+370.917j;     
}       

object transformer_configuration {     
      name transformer_configuration_1106;     
      connect_type SINGLE_PHASE_CENTER_TAPPED;     
      install_type PADMOUNT;     
      primary_voltage 7200 V;    
      secondary_voltage 120 V;    
      power_rating 37.5;     
      powerB_rating 37.5;     
      resistance 0.00400;     
      reactance 0.00267;     
      shunt_impedance 365.685+424.379j;     
}       

object transformer_configuration {     
      name transformer_configuration_1107;     
      connect_type SINGLE_PHASE_CENTER_TAPPED;     
      install_type PADMOUNT;     
      primary_voltage 7200 V;    
      secondary_voltage 120 V;    
      power_rating 25.0;     
      powerC_rating 25.0;     
      resistance 0.00600;     
      reactance 0.00400;     
      shunt_impedance 339.610+385.427j;     
}       

object transformer_configuration {     
      name transformer_configuration_1108;     
      connect_type SINGLE_PHASE_CENTER_TAPPED;     
      install_type PADMOUNT;     
      primary_voltage 7200 V;    
      secondary_voltage 120 V;    
      power_rating 75.0;     
      powerC_rating 75.0;     
      resistance 0.00200;     
      reactance 0.00133;     
      shunt_impedance 443.910+424.003j;     
}       

object transformer_configuration {     
      name transformer_configuration_1109;     
      connect_type SINGLE_PHASE_CENTER_TAPPED;     
      install_type PADMOUNT;     
      primary_voltage 7200 V;    
      secondary_voltage 120 V;    
      power_rating 50.0;     
      powerC_rating 50.0;     
      resistance 0.00300;     
      reactance 0.00200;     
      shunt_impedance 391.760+398.358j;     
}       

object transformer_configuration {     
      name transformer_configuration_1110;     
      connect_type SINGLE_PHASE_CENTER_TAPPED;     
      install_type PADMOUNT;     
      primary_voltage 7200 V;    
      secondary_voltage 120 V;    
      power_rating 37.5;     
      powerC_rating 37.5;     
      resistance 0.00400;     
      reactance 0.00267;     
      shunt_impedance 365.685+324.710j;     
}       

object transformer_configuration {     
      name transformer_configuration_1111;     
      connect_type SINGLE_PHASE_CENTER_TAPPED;     
      install_type POLETOP;     
      primary_voltage 7200 V;    
      secondary_voltage 120 V;    
      power_rating 25.0;     
      powerC_rating 25.0;     
      resistance 0.00600;     
      reactance 0.00400;     
      shunt_impedance 339.610+353.219j;     
}       

object transformer_configuration {     
      name transformer_configuration_1112;     
      connect_type SINGLE_PHASE_CENTER_TAPPED;     
      install_type PADMOUNT;     
      primary_voltage 7200 V;    
      secondary_voltage 120 V;    
      power_rating 5;     
      powerC_rating 5;     
      resistance 0.015;     
      reactance 0.01;     
      shunt_impedance 297.890+319.906j;     
}       

object transformer_configuration {     
      name transformer_configuration_1113;     
      connect_type SINGLE_PHASE_CENTER_TAPPED;     
      install_type PADMOUNT;     
      primary_voltage 7200 V;    
      secondary_voltage 120 V;    
      power_rating 10.0;     
      powerC_rating 10.0;     
      resistance 0.015;     
      reactance 0.01;     
      shunt_impedance 308.320+336.070j;     
}       

object transformer_configuration {     
      name transformer_configuration_1114;     
      connect_type SINGLE_PHASE_CENTER_TAPPED;     
      install_type POLETOP;     
      primary_voltage 7200 V;    
      secondary_voltage 120 V;    
      power_rating 50.0;     
      powerC_rating 50.0;     
      resistance 0.00300;     
      reactance 0.00200;     
      shunt_impedance 391.760+331.773j;     
}       

object transformer_configuration {     
      name transformer_configuration_1115;     
      connect_type SINGLE_PHASE_CENTER_TAPPED;     
      install_type POLETOP;     
      primary_voltage 7200 V;    
      secondary_voltage 120 V;    