//Input feeder information for Taxonomy Feeders with different cases.
//Started on 10/21/09. This version created 25-Feb-2019 18:35:41.
// This version was created to perform FY11 Department of Energy
// analysis on the benefits of the SGIG grant projects.

clock {
     timezone EST+5EDT;
     starttime '2009-01-01 00:00:00';
     stoptime '2010-01-02 00:00:00';
}

#include "appliance_schedules.glm";
#include "water_and_setpoint_schedule_v5.glm";
#include "commercial_schedules.glm";
#include "daily_elasticity_schedules.glm";
//#define stylesheet=http://gridlab-d.svn.sourceforge.net/viewvc/gridlab-d/trunk/core/gridlabd-2_0
#set minimum_timestep=60;
#set profiler=1;
#set relax_naming_rules=1;

module tape;
module climate;
module residential {
     implicit_enduses NONE;
};
module powerflow {
     solver_method NR;
     NR_iteration_limit 50;
};

class player {
     double value;
};

module market;

class auction {
     double my_avg;
     double my_std;
};

object player {
     name CPP_days_R5;
     file CPP_days_R5.player;
};

object auction {
     name Market_1;
     period 900;
     special_mode BUYERS_ONLY;
     unit kW;
     my_avg 0.083530;
     my_std 0.029074;
     object player {
          file R5_1247_2_t0_TOU.player;
          loop 10;
          property current_market.clearing_price;
     };
}

object climate {
     name "FL-Miami";
     tmyfile "FL-Miami.tmy2";
     interpolate QUADRATIC;
};

//Configurations

object regulator_configuration {     
      name regulator_configuration_1563;     
      name feeder_reg_cfg;     
      Control OUTPUT_VOLTAGE;     
      band_center 7500.0;     
      band_width 120;     
      connect_type WYE_WYE;     
      time_delay 30;     
      raise_taps 16;     
      lower_taps 16;     
      regulation 0.10;     
      tap_pos_A 0;     
      tap_pos_B 0;     
      tap_pos_C 0;     
}       

object line_configuration {     
      name line_configuration_23;     
      conductor_A overhead_line_conductor_2;     
      conductor_B overhead_line_conductor_2;     
      conductor_C overhead_line_conductor_2;     
      conductor_N overhead_line_conductor_2;     
      spacing line_spacing_14;     
}       

object line_configuration {     
      name line_configuration_24;     
      conductor_C overhead_line_conductor_2;     
      conductor_N overhead_line_conductor_2;     
      spacing line_spacing_15;     
}       

object line_configuration {     
      name line_configuration_25;     
      conductor_A overhead_line_conductor_2;     
      conductor_N overhead_line_conductor_2;     
      spacing line_spacing_16;     
}       

object line_configuration {     
      name line_configuration_26;     
      conductor_A overhead_line_conductor_3;     
      conductor_B overhead_line_conductor_3;     
      conductor_C overhead_line_conductor_3;     
      conductor_N overhead_line_conductor_3;     
      spacing line_spacing_17;     
}       

object line_configuration {     
      name line_configuration_27;     
      conductor_A overhead_line_conductor_4;     
      conductor_B overhead_line_conductor_4;     
      conductor_N overhead_line_conductor_4;     
      spacing line_spacing_18;     
}       

object line_configuration {     
      name line_configuration_28;     
      conductor_A overhead_line_conductor_5;     
      conductor_B overhead_line_conductor_5;     
      conductor_C overhead_line_conductor_5;     
      conductor_N overhead_line_conductor_5;     
      spacing line_spacing_17;     
}       

object line_configuration {     
      name line_configuration_29;     
      conductor_A overhead_line_conductor_3;     
      conductor_N overhead_line_conductor_3;     
      spacing line_spacing_19;     
}       

object line_configuration {     
      name line_configuration_30;     
      conductor_A overhead_line_conductor_4;     
      conductor_B overhead_line_conductor_4;     
      conductor_C overhead_line_conductor_4;     
      conductor_N overhead_line_conductor_4;     
      spacing line_spacing_17;     
}       

object line_configuration {     
      name line_configuration_31;     
      conductor_A overhead_line_conductor_6;     
      conductor_B overhead_line_conductor_6;     
      conductor_C overhead_line_conductor_6;     
      conductor_N overhead_line_conductor_6;     
      spacing line_spacing_17;     
}       

object line_configuration {     
      name line_configuration_32;     
      conductor_A overhead_line_conductor_7;     
      conductor_C overhead_line_conductor_7;     
      conductor_N overhead_line_conductor_7;     
      spacing line_spacing_20;     
}       

object line_configuration {     
      name line_configuration_33;     
      conductor_A overhead_line_conductor_6;     
      conductor_B overhead_line_conductor_6;     
      conductor_C overhead_line_conductor_6;     
      conductor_N overhead_line_conductor_6;     
      spacing line_spacing_17;     
}       

object line_configuration {     
      name line_configuration_34;     
      conductor_A overhead_line_conductor_6;     
      conductor_C overhead_line_conductor_6;     
      conductor_N overhead_line_conductor_6;     
      spacing line_spacing_20;     
}       

object line_configuration {     
      name line_configuration_35;     
      conductor_C overhead_line_conductor_3;     
      conductor_N overhead_line_conductor_3;     
      spacing line_spacing_21;     
}       

object line_configuration {     
      name line_configuration_36;     
      conductor_A overhead_line_conductor_8;     
      conductor_B overhead_line_conductor_8;     
      conductor_C overhead_line_conductor_8;     
      conductor_N overhead_line_conductor_8;     
      spacing line_spacing_17;     
}       

object line_configuration {     
      name line_configuration_37;     
      conductor_B overhead_line_conductor_3;     
      conductor_N overhead_line_conductor_3;     
      spacing line_spacing_22;     
}       

object line_configuration {     
      name line_configuration_38;     
      conductor_A overhead_line_conductor_6;     
      conductor_C overhead_line_conductor_6;     
      conductor_N overhead_line_conductor_6;     
      spacing line_spacing_20;     
}       

object line_configuration {     
      name line_configuration_39;     
      conductor_B overhead_line_conductor_6;     
      conductor_N overhead_line_conductor_6;     
      spacing line_spacing_22;     
}       

object line_configuration {     
      name line_configuration_40;     
      conductor_C overhead_line_conductor_7;     
      conductor_N overhead_line_conductor_7;     
      spacing line_spacing_21;     
}       

object line_configuration {     
      name line_configuration_41;     
      conductor_A overhead_line_conductor_3;     
      conductor_B overhead_line_conductor_3;     
      conductor_N overhead_line_conductor_3;     
      spacing line_spacing_18;     
}       

object line_configuration {     
      name line_configuration_42;     
      conductor_A overhead_line_conductor_4;     
      conductor_C overhead_line_conductor_4;     
      conductor_N overhead_line_conductor_4;     
      spacing line_spacing_20;     
}       

object line_configuration {     
      name line_configuration_43;     
      conductor_B overhead_line_conductor_4;     
      conductor_N overhead_line_conductor_4;     
      spacing line_spacing_22;     
}       

object line_configuration {     
      name line_configuration_44;     
      conductor_C overhead_line_conductor_4;     
      conductor_N overhead_line_conductor_4;     
      spacing line_spacing_21;     
}       

object line_configuration {     
      name line_configuration_45;     
      conductor_A overhead_line_conductor_4;     
      conductor_B overhead_line_conductor_4;     
      conductor_C overhead_line_conductor_4;     
      conductor_N overhead_line_conductor_4;     
      spacing line_spacing_17;     
}       

object line_configuration {     
      name line_configuration_46;     
      conductor_A underground_line_conductor_9;     
      conductor_B underground_line_conductor_9;     
      conductor_C underground_line_conductor_9;     
      conductor_N underground_line_conductor_9;     
      spacing line_spacing_17;     
}       

object line_configuration {     
      name line_configuration_47;     
      conductor_A underground_line_conductor_10;     
      conductor_B underground_line_conductor_10;     
      conductor_C underground_line_conductor_10;     
      conductor_N underground_line_conductor_10;     
      spacing line_spacing_17;     
}       

object line_configuration {     
      name line_configuration_48;     
      conductor_A underground_line_conductor_9;     
      conductor_N underground_line_conductor_9;     
      spacing line_spacing_19;     
}       

object line_configuration {     
      name line_configuration_49;     
      conductor_A underground_line_conductor_11;     
      conductor_B underground_line_conductor_11;     
      conductor_C underground_line_conductor_11;     
      conductor_N underground_line_conductor_11;     
      spacing line_spacing_17;     
}       

object line_configuration {     
      name line_configuration_50;     
      conductor_A underground_line_conductor_12;     
      conductor_B underground_line_conductor_12;     
      conductor_C underground_line_conductor_12;     
      conductor_N underground_line_conductor_12;     
      spacing line_spacing_17;     
}       

object line_configuration {     
      name line_configuration_51;     
      conductor_C underground_line_conductor_9;     
      conductor_N underground_line_conductor_9;     
      spacing line_spacing_21;     
}       

object line_spacing {     
      name line_spacing_14;     
      distance_AB 48.0 in;    
      distance_BC 48.0 in;    
      distance_AC 48.0 in;    
      distance_AN 36.0 in;    
      distance_BN 36.0 in;    
      distance_CN 36.0 in;    
}       

object line_spacing {     
      name line_spacing_15;     
      distance_CN 36.0 in;    
}       

object line_spacing {     
      name line_spacing_16;     
      distance_AN 36.0 in;    
}       

object line_spacing {     
      name line_spacing_17;     
      distance_AB 36.0 in;    
      distance_BC 36.0 in;    
      distance_AC 36.0 in;    
      distance_AN 48.0 in;    
      distance_BN 48.0 in;    
      distance_CN 48.0 in;    
}       

object line_spacing {     
      name line_spacing_18;     
      distance_AB 36.0 in;    
      distance_AN 48.0 in;    
      distance_BN 48.0 in;    
}       

object line_spacing {     
      name line_spacing_19;     
      distance_AN 48.0 in;    
}       

object line_spacing {     
      name line_spacing_20;     
      distance_AC 36.0 in;    
      distance_AN 48.0 in;    
      distance_CN 48.0 in;    
}       

object line_spacing {     
      name line_spacing_21;     
      distance_CN 48.0 in;    
}       

object line_spacing {     
      name line_spacing_22;     
      distance_BN 48.0 in;    
}       

object overhead_line_conductor {     
      name overhead_line_conductor_2;     
      //name 715 ACSR;    
      rating.summer.continuous 891.0;     
      geometric_mean_radius 0.03550 ft;    
      resistance 0.14420;     
}       

object overhead_line_conductor {     
      name overhead_line_conductor_3;     
      //name 1/0 AAC;    
      rating.summer.continuous 230.0;     
      geometric_mean_radius 0.01203 ft;    
      resistance 0.95300;     
}       

object overhead_line_conductor {     
      name overhead_line_conductor_4;     
      //name 2 AAAC;    
      rating.summer.continuous 197.0;     
      geometric_mean_radius 0.00883 ft;    
      resistance 1.51970;     
}       

object overhead_line_conductor {     
      name overhead_line_conductor_5;     
      //name 477 AAC;    
      rating.summer.continuous 714.0;     
      geometric_mean_radius 0.01703 ft;    
      resistance 0.21600;     
}       

object overhead_line_conductor {     
      name overhead_line_conductor_6;     
      //name 4 ACSR;    
      rating.summer.continuous 123.0;     
      geometric_mean_radius 0.00437 ft;    
      resistance 2.53069;     
}       

object overhead_line_conductor {     
      name overhead_line_conductor_7;     
      //name 6 AAC;    
      rating.summer.continuous 90.0;     
      geometric_mean_radius 0.00599 ft;    
      resistance 0.67000;     
}       

object overhead_line_conductor {     
      name overhead_line_conductor_8;     
      //name 2/0 AAC;    
      rating.summer.continuous 270.0;     
      geometric_mean_radius 0.01350 ft;    
      resistance 0.13200;     
}       

object overhead_line_conductor {     
      name overhead_line_conductor_13;     
      //name 4/0 AAC;    
      rating.summer.continuous 360.0;     
      geometric_mean_radius 0.01033 ft;    
      resistance 0.47600;     
}       

object transformer_configuration {     
      name transformer_configuration_1012;     
      connect_type SINGLE_PHASE_CENTER_TAPPED;     
      install_type POLETOP;     
      primary_voltage 7200 V;    
      secondary_voltage 120 V;    
      power_rating 100.0;     
      powerA_rating 100.0;     
      resistance 0.00150;     
      reactance 0.00100;     
      shunt_impedance 496.060+447.035j;     
}       

object transformer_configuration {     
      name transformer_configuration_1013;     
      connect_type SINGLE_PHASE_CENTER_TAPPED;     
      install_type POLETOP;     
      primary_voltage 7200 V;    
      secondary_voltage 120 V;    
      power_rating 50.0;     
      powerA_rating 50.0;     
      resistance 0.00300;     
      reactance 0.00200;     
      shunt_impedance 391.760+428.953j;     
}       

object transformer_configuration {     
      name transformer_configuration_1014;     
      connect_type SINGLE_PHASE_CENTER_TAPPED;     
      install_type POLETOP;     
      primary_voltage 7200 V;    
      secondary_voltage 120 V;    
      power_rating 30.0;     
      powerA_rating 30.0;     
      resistance 0.00500;     
      reactance 0.00333;     
      shunt_impedance 350.040+362.334j;     
}       

object transformer_configuration {     
      name transformer_configuration_1015;     
      connect_type SINGLE_PHASE_CENTER_TAPPED;     
      install_type POLETOP;     
      primary_voltage 7200 V;    
      secondary_voltage 120 V;    
      power_rating 25.0;     
      powerA_rating 25.0;     
      resistance 0.00600;     
      reactance 0.00400;     
      shunt_impedance 339.610+309.986j;     
}       

object transformer_configuration {     
      name transformer_configuration_1016;     
      connect_type SINGLE_PHASE_CENTER_TAPPED;     
      install_type POLETOP;     
      primary_voltage 7200 V;    
      secondary_voltage 120 V;    
      power_rating 5;     
      powerA_rating 5;     
      resistance 0.015;     
      reactance 0.01;     
      shunt_impedance 297.890+286.030j;     
}       

object transformer_configuration {     
      name transformer_configuration_1017;     
      connect_type SINGLE_PHASE_CENTER_TAPPED;     
      install_type POLETOP;     
      primary_voltage 7200 V;    
      secondary_voltage 120 V;    
      power_rating 62.5;     
      powerA_rating 62.5;     
      resistance 0.00240;     
      reactance 0.00160;     
      shunt_impedance 417.835+428.550j;     
}       

object transformer_configuration {     
      name transformer_configuration_1018;     
      connect_type SINGLE_PHASE_CENTER_TAPPED;     
      install_type POLETOP;     
      primary_voltage 7200 V;    
      secondary_voltage 120 V;    
      power_rating 15.0;     
      powerA_rating 15.0;     
      resistance 0.01000;     
      reactance 0.00667;     
      shunt_impedance 318.750+325.763j;     
}       

object transformer_configuration {     
      name transformer_configuration_1019;     
      connect_type SINGLE_PHASE_CENTER_TAPPED;     
      install_type POLETOP;     
      primary_voltage 7200 V;    
      secondary_voltage 120 V;    
      power_rating 37.5;     
      powerA_rating 37.5;     
      resistance 0.00400;     
      reactance 0.00267;     
      shunt_impedance 365.685+303.100j;     
}       

object transformer_configuration {     
      name transformer_configuration_1020;     
      connect_type SINGLE_PHASE_CENTER_TAPPED;     
      install_type POLETOP;     
      primary_voltage 7200 V;    
      secondary_voltage 120 V;    
      power_rating 100.0;     
      powerB_rating 100.0;     
      resistance 0.00150;     
      reactance 0.00100;     
      shunt_impedance 496.060+436.247j;     
}       

object transformer_configuration {     
      name transformer_configuration_1021;     
      connect_type SINGLE_PHASE_CENTER_TAPPED;     
      install_type POLETOP;     
      primary_voltage 7200 V;    
      secondary_voltage 120 V;    
      power_rating 5;     
      powerB_rating 5;     
      resistance 0.015;     
      reactance 0.01;     
      shunt_impedance 297.890+245.077j;     
}       

object transformer_configuration {     
      name transformer_configuration_1022;     
      connect_type SINGLE_PHASE_CENTER_TAPPED;     
      install_type POLETOP;     
      primary_voltage 7200 V;    
      secondary_voltage 120 V;    
      power_rating 75.0;     
      powerB_rating 75.0;     
      resistance 0.00200;     
      reactance 0.00133;     
      shunt_impedance 443.910+440.692j;     
}       

object transformer_configuration {     
      name transformer_configuration_1023;     
      connect_type SINGLE_PHASE_CENTER_TAPPED;     
      install_type POLETOP;     
      primary_voltage 7200 V;    
      secondary_voltage 120 V;    
      power_rating 50.0;     
      powerB_rating 50.0;     
      resistance 0.00300;     
      reactance 0.00200;     
      shunt_impedance 391.760+324.334j;     
}       

object transformer_configuration {     
      name transformer_configuration_1024;     
      connect_type SINGLE_PHASE_CENTER_TAPPED;     
      install_type POLETOP;     
      primary_voltage 7200 V;    
      secondary_voltage 120 V;    
      power_rating 25.0;     
      powerB_rating 25.0;     
      resistance 0.00600;     
      reactance 0.00400;     
      shunt_impedance 339.610+363.447j;     
}       

object transformer_configuration {     
      name transformer_configuration_1025;     
      connect_type SINGLE_PHASE_CENTER_TAPPED;     
      install_type POLETOP;     
      primary_voltage 7200 V;    
      secondary_voltage 120 V;    
      power_rating 62.5;     
      powerB_rating 62.5;     
      resistance 0.00240;     
      reactance 0.00160;     
      shunt_impedance 417.835+375.823j;     
}       

object transformer_configuration {     
      name transformer_configuration_1026;     
      connect_type SINGLE_PHASE_CENTER_TAPPED;     
      install_type POLETOP;     
      primary_voltage 7200 V;    
      secondary_voltage 120 V;    
      power_rating 15.0;     
      powerB_rating 15.0;     
      resistance 0.01000;     
      reactance 0.00667;     
      shunt_impedance 318.750+283.483j;     
}       

object transformer_configuration {     
      name transformer_configuration_1027;     
      connect_type SINGLE_PHASE_CENTER_TAPPED;     
      install_type POLETOP;     
      primary_voltage 7200 V;    
      secondary_voltage 120 V;    
      power_rating 37.5;     
      powerB_rating 37.5;     
      resistance 0.00400;     
      reactance 0.00267;     
      shunt_impedance 365.685+431.163j;     
}       

object transformer_configuration {     
      name transformer_configuration_1028;     
      connect_type SINGLE_PHASE_CENTER_TAPPED;     
      install_type POLETOP;     
      primary_voltage 7200 V;    
      secondary_voltage 120 V;    
      power_rating 50.0;     
      powerC_rating 50.0;     
      resistance 0.00300;     
      reactance 0.00200;     
      shunt_impedance 391.760+476.474j;     
}       

object transformer_configuration {     
      name transformer_configuration_1029;     
      connect_type SINGLE_PHASE_CENTER_TAPPED;     
      install_type POLETOP;     
      primary_voltage 7200 V;    
      secondary_voltage 120 V;    
      power_rating 25.0;     
      powerC_rating 25.0;     
      resistance 0.00600;     
      reactance 0.00400;     
      shunt_impedance 339.610+311.787j;     
}       

object transformer_configuration {     
      name transformer_configuration_1030;     
      connect_type SINGLE_PHASE_CENTER_TAPPED;     
      install_type POLETOP;     
      primary_voltage 7200 V;    
      secondary_voltage 120 V;    
      power_rating 100.0;     
      powerC_rating 100.0;     
      resistance 0.00150;     
      reactance 0.00100;     
      shunt_impedance 496.060+494.222j;     
}       

object transformer_configuration {     
      name transformer_configuration_1031;     
      connect_type SINGLE_PHASE_CENTER_TAPPED;     
      install_type POLETOP;     
      primary_voltage 7200 V;    
      secondary_voltage 120 V;    
      power_rating 5;     
      powerC_rating 5;     
      resistance 0.015;     
      reactance 0.01;     
      shunt_impedance 297.890+356.366j;     
}       

object transformer_configuration {     
      name transformer_configuration_1032;     
      connect_type SINGLE_PHASE_CENTER_TAPPED;     
      install_type POLETOP;     
      primary_voltage 7200 V;    
      secondary_voltage 120 V;    
      power_rating 30.0;     
      powerC_rating 30.0;     
      resistance 0.00500;     
      reactance 0.00333;     
      shunt_impedance 350.040+331.129j;     
}       

object transformer_configuration {     
      name transformer_configuration_1033;     
      connect_type SINGLE_PHASE_CENTER_TAPPED;     
      install_type POLETOP;     
      primary_voltage 7200 V;    
      secondary_voltage 120 V;    
      power_rating 75.0;     
      powerC_rating 75.0;     
      resistance 0.00200;     
      reactance 0.00133;     
      shunt_impedance 443.910+520.152j;     
}       

object transformer_configuration {     
      name transformer_configuration_1034;     
      connect_type SINGLE_PHASE_CENTER_TAPPED;     
      install_type POLETOP;     
      primary_voltage 7200 V;    
      secondary_voltage 120 V;    
      power_rating 37.5;     
      powerC_rating 37.5;     
      resistance 0.00400;     
      reactance 0.00267;     
      shunt_impedance 365.685+395.664j;     
}       

object transformer_configuration {     
      name transformer_configuration_1035;     
      connect_type SINGLE_PHASE_CENTER_TAPPED;     
      install_type POLETOP;     
      primary_voltage 7200 V;    
      secondary_voltage 120 V;    
      power_rating 15.0;     
      powerC_rating 15.0;     
      resistance 0.01000;     
      reactance 0.00667;     
      shunt_impedance 318.750+320.520j;     
}       

object transformer_configuration {     
      name transformer_configuration_1174;     
      connect_type WYE_WYE;     
      install_type POLETOP;     
      primary_voltage 12470.000 V;    
      secondary_voltage 480 V;    
      power_rating 300.0;     
      powerA_rating 100.0;     
      powerB_rating 100.0;     
      powerC_rating 100.0;     
      resistance 0.00033;     
      reactance 0.00167;     
      shunt_impedance 913.260+881.010j;     
}       

object transformer_configuration {     
      name transformer_configuration_1175;     
      connect_type WYE_WYE;     
      install_type POLETOP;     
      primary_voltage 12470.000 V;    
      secondary_voltage 480 V;    
      power_rating 150.0;     
      powerA_rating 50.0;     
      powerB_rating 50.0;     
      powerC_rating 50.0;     
      resistance 0.00067;     
      reactance 0.00333;     
      shunt_impedance 600.360+702.010j;     
}       

object transformer_configuration {     
      name transformer_configuration_1176;     
      connect_type WYE_WYE;     
      install_type POLETOP;     
      primary_voltage 12470.000 V;    
      secondary_voltage 480 V;    
      power_rating 525.0;     
      powerA_rating 175.0;     
      powerB_rating 175.0;     
      powerC_rating 175.0;     
      resistance 0.00019;     
      reactance 0.00095;     
      shunt_impedance 1382.610+1480.921j;     
}       

object transformer_configuration {     
      name transformer_configuration_1177;     
      connect_type WYE_WYE;     
      install_type POLETOP;     
      primary_voltage 12470.000 V;    
      secondary_voltage 480 V;    
      power_rating 1500.0;     
      powerA_rating 500.0;     
      powerB_rating 500.0;     
      powerC_rating 500.0;     
      resistance 0.00007;     
      reactance 0.00033;     
      shunt_impedance 3416.460+3200.279j;     
}       

object transformer_configuration {     
      name transformer_configuration_1178;     
      connect_type WYE_WYE;     
      install_type POLETOP;     
      primary_voltage 12470.000 V;    
      secondary_voltage 480 V;    
      power_rating 1012.5;     
      powerA_rating 337.5;     
      powerB_rating 337.5;     
      powerC_rating 337.5;     
      resistance 0.00010;     
      reactance 0.00049;     
      shunt_impedance 2399.535+2493.771j;     
}       

object transformer_configuration {     
      name transformer_configuration_1179;     
      connect_type WYE_WYE;     
      install_type POLETOP;     
      primary_voltage 12470.000 V;    
      secondary_voltage 480 V;    
      power_rating 25.0;     
      powerA_rating 25.0;     
      resistance 0.00400;     
      reactance 0.02000;     
      shunt_impedance 339.610+309.794j;     
}       

object transformer_configuration {     
      name transformer_configuration_1180;     
      connect_type WYE_WYE;     
      install_type POLETOP;     
      primary_voltage 12470.000 V;    
      secondary_voltage 480 V;    
      power_rating 3000.0;     
      powerA_rating 1000.0;     
      powerB_rating 1000.0;     
      powerC_rating 1000.0;     
      resistance 0.00003;     
      reactance 0.00017;     
      shunt_impedance 6545.460+6642.952j;     
}       

object transformer_configuration {     
      name transformer_configuration_1181;     
      connect_type WYE_WYE;     
      install_type POLETOP;     
      primary_voltage 12470.000 V;    
      secondary_voltage 480 V;    
      power_rating 75.0;     
      powerA_rating 25.0;     
      powerB_rating 25.0;     
      powerC_rating 25.0;     
      resistance 0.00133;     
      reactance 0.00667;     
      shunt_impedance 443.910+511.912j;     
}       

object transformer_configuration {     
      name transformer_configuration_1182;     
      connect_type WYE_WYE;     
      install_type POLETOP;     
      primary_voltage 12470.000 V;    
      secondary_voltage 480 V;    
      power_rating 100.0;     
      powerA_rating 100.0;     
      resistance 0.00100;     
      reactance 0.00500;     
      shunt_impedance 496.060+522.443j;     
}       

object transformer_configuration {     
      name transformer_configuration_1183;     
      connect_type WYE_WYE;     
      install_type POLETOP;     
      primary_voltage 12470.000 V;    
      secondary_voltage 480 V;    
      power_rating 50.0;     
      powerA_rating 0.0;     
      powerB_rating 50.0;     
      resistance 0.00200;     
      reactance 0.01000;     
      shunt_impedance 391.760+361.999j;     
}       

object transformer_configuration {     
      name transformer_configuration_1184;     
      connect_type WYE_WYE;     
      install_type POLETOP;     
      primary_voltage 12470.000 V;    
      secondary_voltage 480 V;    
      power_rating 25.0;     
      powerA_rating 0.0;     
      powerB_rating 25.0;     
      powerC_rating 0.0;     
      resistance 0.00400;     
      reactance 0.02000;     
      shunt_impedance 339.610+351.428j;     
}       

object transformer_configuration {     
      name transformer_configuration_1185;     
      connect_type WYE_WYE;     
      install_type POLETOP;     
      primary_voltage 12470.000 V;    
      secondary_voltage 480 V;    
      power_rating 50.0;     
      powerA_rating 50.0;     
      resistance 0.00200;     
      reactance 0.01000;     
      shunt_impedance 391.760+364.423j;     
}       

object transformer_configuration {     
      name transformer_configuration_1186;     
      connect_type WYE_WYE;     
      install_type POLETOP;     
      primary_voltage 12470.000 V;    
      secondary_voltage 480 V;    
      power_rating 75.0;     
      powerA_rating 37.5;     
      powerB_rating 0.0;     
      powerC_rating 37.5;     
      resistance 0.00133;     
      reactance 0.00667;     
      shunt_impedance 443.910+533.549j;     
}       

object transformer_configuration {     
      name transformer_configuration_1187;     
      connect_type WYE_WYE;     
      install_type POLETOP;     
      primary_voltage 12470.000 V;    
      secondary_voltage 480 V;    
      power_rating 75.0;     
      powerA_rating 37.5;     
      powerC_rating 37.5;     
      resistance 0.00133;     
      reactance 0.00667;     
      shunt_impedance 443.910+364.286j;     
}       

object transformer_configuration {     
      name transformer_configuration_1188;     
      connect_type WYE_WYE;     
      install_type POLETOP;     
      primary_voltage 12470.000 V;    
      secondary_voltage 480 V;    
      power_rating 150.0;     
      powerA_rating 75.0;     
      powerB_rating 75.0;     
      powerC_rating 0.0;     
      resistance 0.00067;     
      reactance 0.00333;     
      shunt_impedance 600.360+560.766j;     
}       

object transformer_configuration {     
      name transformer_configuration_1189;     
      connect_type WYE_WYE;     
      install_type POLETOP;     